data_LUCQIN
_symmetry_space_group_name_H-M    'P1'
_symmetry_Int_Tables_number       1
loop_
_symmetry_equiv_pos_site_id
_symmetry_equiv_pos_as_xyz
1 x,y,z
_cell_length_a                   5.425301
_cell_length_b                   17.44066
_cell_length_c                   19.06515
_cell_angle_alpha                90.0
_cell_angle_beta                 91.5472
_cell_angle_gamma                90.0
loop_
_atom_site_label
_atom_site_type_symbol
_atom_site_fract_x
_atom_site_fract_y
_atom_site_fract_z
     1  S          0.89726110       0.40566400       0.71098300
     2  S          0.60273890       0.90566400       0.78901700
     3  S          0.10273890       0.59433600       0.28901700
     4  S          0.39726110       0.09433600       0.21098300
     5  O          0.70883000       0.35511110       0.68010900
     6  O          0.79117000       0.85511110       0.81989100
     7  O          0.29117000       0.64488890       0.31989100
     8  O          0.20883000       0.14488890       0.18010900
     9  O          0.14233000       0.39467110       0.68482900
    10  O          0.35767000       0.89467110       0.81517100
    11  O          0.85767000       0.60532890       0.31517100
    12  O          0.64233000       0.10532890       0.18482900
    13  N          0.75424000       0.40830140       0.90230110
    14  N          0.74576000       0.90830140       0.59769890
    15  N          0.24576000       0.59169860       0.09769890
    16  N          0.25424000       0.09169860       0.40230110
    17  N          0.48474000       0.39615140       0.80894110
    18  N          0.01526000       0.89615140       0.69105890
    19  N          0.51526000       0.60384860       0.19105890
    20  N         -0.01526000       0.10384860       0.30894110
    21  H          0.36197300       0.39839800       0.83810900
    22  H          0.13802700       0.89839800       0.66189100
    23  H          0.63802700       0.60160200       0.16189100
    24  H          0.86197300       0.10160200       0.33810900
    25  H          0.45431200       0.39099800       0.76361300
    26  H          0.04568800       0.89099800       0.73638700
    27  H          0.54568800       0.60900200       0.23638700
    28  H          0.95431200       0.10900200       0.26361300
    29  N          0.91824000       0.39792130       0.79373110
    30  N          0.58176000       0.89792130       0.70626890
    31  N          0.08176000       0.60207870       0.20626890
    32  N          0.41824000       0.10207870       0.29373110
    33  H          0.06419500       0.39180900       0.81420700
    34  H          0.43580500       0.89180900       0.68579300
    35  H          0.93580500       0.60819100       0.18579300
    36  H          0.56419500       0.10819100       0.31420700
    37  C          0.71615000       0.40053150       0.83334130
    38  C          0.78385000       0.90053150       0.66665870
    39  C          0.28385000       0.59946850       0.16665870
    40  C          0.21615000       0.09946850       0.33334130
    41  C          0.80005000       0.50011160       0.69314130
    42  C          0.69995000       0.00011160       0.80685870
    43  C          0.19995000       0.49988840       0.30685870
    44  C          0.30005000      -0.00011160       0.19314130
    45  C          0.58675000       0.51445160       0.65356140
    46  C          0.91325000       0.01445160       0.84643860
    47  C          0.41325000       0.48554840       0.34643860
    48  C          0.08675000       0.98554840       0.15356140
    49  H          0.49501600       0.47303700       0.63369600
    50  H          0.00498400       0.97303700       0.86630400
    51  H          0.50498400       0.52696300       0.36630400
    52  H         -0.00498400       0.02696300       0.13369600
    53  N          0.55766000       0.72444160       0.66134160
    54  N          0.94234000       0.22444160       0.83865840
    55  N          0.44234000       0.27555840       0.33865840
    56  N          0.05766000       0.77555840       0.16134160
    57  H          0.40639200       0.72490100       0.64212600
    58  H          0.09360800       0.22490100       0.85787400
    59  H          0.59360800       0.27509900       0.35787400
    60  H          0.90639200       0.77509900       0.14212600
    61  C          0.93605000       0.56081170       0.72204140
    62  C          0.56395000       0.06081170       0.77795860
    63  C          0.06395000       0.43918830       0.27795860
    64  C          0.43605000       0.93918830       0.22204140
    65  H          0.08341100       0.55104300       0.74855000
    66  H          0.41658900       0.05104300       0.75145000
    67  H          0.91658900       0.44895700       0.25145000
    68  H          0.58341100       0.94895700       0.24855000
    69  C          0.50785000       0.58877170       0.64304150
    70  C         -0.00785000       0.08877170       0.85695850
    71  C          0.49215000       0.41122830       0.35695850
    72  C          0.00785000       0.91122830       0.14304150
    73  H          0.36332000       0.59823500       0.61512500
    74  H          0.13668000       0.09823500       0.88487500
    75  H          0.63668000       0.40176500       0.38487500
    76  H          0.86332000       0.90176500       0.11512500
    77  C          0.63726000       0.65020170       0.67280150
    78  C          0.86274000       0.15020170       0.82719850
    79  C          0.36274000       0.34979830       0.32719850
    80  C          0.13726000       0.84979830       0.17280150
    81  C          0.85516000       0.63511170       0.71191150
    82  C          0.64484000       0.13511170       0.78808850
    83  C          0.14484000       0.36488830       0.28808850
    84  C          0.35516000       0.86488830       0.21191150
    85  H          0.94767000       0.67646400       0.73155800
    86  H          0.55233000       0.17646400       0.76844200
    87  H          0.05233000       0.32353600       0.26844200
    88  H          0.44767000       0.82353600       0.23155800
    89  H          0.89260000       0.40261600       0.91831500
    90  H          0.60740000       0.90261600       0.58168500
    91  H          0.10740000       0.59738400       0.08168500
    92  H          0.39260000       0.09738400       0.41831500
    93  H          0.62670000       0.75620000       0.69820000
    94  H          0.87330000       0.25620000       0.80180000
    95  H          0.37330000       0.24380000       0.30180000
    96  H          0.12670000       0.74380000       0.19820000
    97  O          0.76163000       0.12654110       0.44966900
    98  O          0.73837000       0.62654110       0.05033100
    99  O          0.23837000       0.87345890       0.55033100
   100  O          0.26163000       0.37345890       0.94966900
   101  N          0.65924000       0.21745120       0.53389110
   102  N          0.84076000       0.71745120       0.96610890
   103  N          0.34076000       0.78254880       0.46610890
   104  N          0.15924000       0.28254880       0.03389110
   105  N          0.71504000       0.29374130       0.54568110
   106  N          0.78496000       0.79374130       0.95431890
   107  N          0.28496000       0.70625870       0.45431890
   108  N          0.21504000       0.20625870       0.04568110
   109  H          0.64768500       0.32363300       0.57703000
   110  H          0.85231500       0.82363300       0.92297000
   111  H          0.35231500       0.67636700       0.42297000
   112  H          0.14768500       0.17636700       0.07703000
   113  C          0.46994000       0.18058150       0.57158120
   114  C          0.03006000       0.68058150       0.92841880
   115  C          0.53006000       0.81941850       0.42841880
   116  C          0.96994000       0.31941850       0.07158120
   117  C          0.78644000       0.19197160       0.47612120
   118  C          0.71356000       0.69197160       0.02387880
   119  C          0.21356000       0.80802840       0.52387880
   120  C          0.28644000       0.30802840       0.97612120
   121  C          0.44945000       0.10117160       0.56954130
   122  C          0.05055000       0.60117160       0.93045870
   123  C          0.55055000       0.89882840       0.43045870
   124  C          0.94945000       0.39882840       0.06954130
   125  H          0.56467300       0.07133600       0.54469000
   126  H          0.93532700       0.57133600       0.95531000
   127  H          0.43532700       0.92866400       0.45531000
   128  H          0.06467300       0.42866400       0.04469000
   129  C          0.89235000       0.31451170       0.50031130
   130  C          0.60765000       0.81451170      -0.00031130
   131  C          0.10765000       0.68548830       0.49968870
   132  C          0.39235000       0.18548830       0.00031130
   133  C          0.30815000       0.22409160       0.61067130
   134  C          0.19185000       0.72409160       0.88932870
   135  C          0.69185000       0.77590840       0.38932870
   136  C          0.80815000       0.27590840       0.11067130
   137  H          0.32458800       0.27827100       0.61281200
   138  H          0.17541200       0.77827100       0.88718800
   139  H          0.67541200       0.72172900       0.38718800
   140  H          0.82458800       0.22172900       0.11281200
   141  C          0.09335000       0.10849170       0.64250140
   142  C          0.40665000       0.60849170       0.85749860
   143  C          0.90665000       0.89150830       0.35749860
   144  C          0.59335000       0.39150830       0.14250140
   145  H          0.96203500       0.08389000       0.66563400
   146  H          0.53796500       0.58389000       0.83436600
   147  H          0.03796500       0.91611000       0.33436600
   148  H          0.46203500       0.41611000       0.16563400
   149  C          0.12135000       0.18722170       0.64671140
   150  C          0.37865000       0.68722170       0.85328860
   151  C          0.87865000       0.81277830       0.35328860
   152  C          0.62135000       0.31277830       0.14671140
   153  H          0.01255900       0.21644700       0.67435900
   154  H          0.48744100       0.71644700       0.82564100
   155  H         -0.01255900       0.78355300       0.32564100
   156  H          0.51255900       0.28355300       0.17435900
   157  C          0.93575000       0.25534170       0.45605140
   158  C          0.56425000       0.75534170       0.04394860
   159  C          0.06425000       0.74465830       0.54394860
   160  C          0.43575000       0.24465830       0.95605140
   161  H          0.04619800       0.25597000       0.41824700
   162  H          0.45380200       0.75597000       0.08175300
   163  H          0.95380200       0.74403000       0.58175300
   164  H          0.54619800       0.24403000       0.91824700
   165  C          0.25765000       0.06591160       0.60439140
   166  C          0.24235000       0.56591160       0.89560860
   167  C          0.74235000       0.93408840       0.39560860
   168  C          0.75765000       0.43408840       0.10439140
   169  H          0.23948500       0.01178800       0.60191900
   170  H          0.26051500       0.51178800       0.89808100
   171  H          0.76051500       0.98821200       0.39808100
   172  H          0.73948500       0.48821200       0.10191900
   173  C          0.00396000       0.39244180       0.50516160
   174  C          0.49604000       0.89244180      -0.00516160
   175  C         -0.00396000       0.60755820       0.49483840
   176  C          0.50396000       0.10755820       0.00516160
   177  H          0.87280700       0.43112100       0.50413800
   178  H          0.62719300       0.93112100      -0.00413800
   179  H          0.12719300       0.56887900       0.49586200
   180  H          0.37280700       0.06887900       0.00413800
   181  H          0.11167900       0.40052800       0.46540800
   182  H          0.38832100       0.90052800       0.03459200
   183  H          0.88832100       0.59947200       0.53459200
   184  H          0.61167900       0.09947200       0.96540800
   185  H          0.10055300       0.39693200       0.54913900
   186  H          0.39944700       0.89693200       0.95086100
   187  H          0.89944700       0.60306800       0.45086100
   188  H          0.60055300       0.10306800       0.04913900
