data_LUFYEU01
_symmetry_space_group_name_H-M    'P1'
_symmetry_Int_Tables_number       1
loop_
_symmetry_equiv_pos_site_id
_symmetry_equiv_pos_as_xyz
1 x,y,z
_cell_length_a                   8.621801
_cell_length_b                   11.57352
_cell_length_c                   12.54662
_cell_angle_alpha                77.1652
_cell_angle_beta                 88.68601
_cell_angle_gamma                69.2932
loop_
_atom_site_label
_atom_site_type_symbol
_atom_site_fract_x
_atom_site_fract_y
_atom_site_fract_z
     1  P          0.50579500       0.49869400       0.24854300
     2  P          0.49420500       0.50130600       0.75145700
     3  F          0.61798140       0.59049110       0.25817800
     4  F          0.38201860       0.40950890       0.74182200
     5  F          0.46682150       0.49407110       0.38142800
     6  F          0.53317850       0.50592890       0.61857200
     7  F          0.39384140       0.40988120       0.24050100
     8  F          0.60615860       0.59011880       0.75949900
     9  F          0.33757150       0.63035120       0.21035100
    10  F          0.66242850       0.36964880       0.78964900
    11  F          0.67595150       0.37012120       0.28155110
    12  F          0.32404850       0.62987880       0.71844890
    13  F          0.54633170       0.50832130       0.11434800
    14  F          0.45366830       0.49167870       0.88565200
    15  N          0.39228160       0.33495120       0.54836110
    16  N          0.60771840       0.66504880       0.45163890
    17  H          0.39489000       0.36667300       0.60645300
    18  H          0.60511000       0.63332700       0.39354700
    19  H          0.40731400       0.38867500       0.48985700
    20  H          0.59268600       0.61132500       0.51014300
    21  C          0.22652000       0.32775150       0.53524140
    22  C          0.77348000       0.67224850       0.46475860
    23  C          0.53172000       0.21192150       0.56214130
    24  C          0.46828000       0.78807850       0.43785870
    25  C          0.14522000       0.37016180       0.43300150
    26  C          0.85478000       0.62983820       0.56699850
    27  H          0.19449100       0.40190800       0.37239100
    28  H          0.80550900       0.59809200       0.62760900
    29  C          0.98808000       0.36462000       0.42222190
    30  C          0.01192000       0.63538000       0.57777810
    31  H          0.93115300       0.39289700       0.35385400
    32  H          0.06884700       0.60710300       0.64614600
    33  C          0.15603000       0.28142000       0.62631170
    34  C          0.84397000       0.71858000       0.37368830
    35  H          0.21238700       0.25402300       0.69482000
    36  H          0.78761300       0.74597700       0.30518000
    37  C          0.61773000       0.15709190       0.66166170
    38  C          0.38227000       0.84290810       0.33833830
    39  H          0.58775900       0.19519600       0.72066100
    40  H          0.41224100       0.80480400       0.27933900
    41  C          0.57373000       0.15852000       0.47356180
    42  C          0.42627000       0.84148000       0.52643820
    43  H          0.51436300       0.19770900       0.40630900
    44  H          0.48563700       0.80229100       0.59369100
    45  C          0.91677000       0.31732000       0.51232000
    46  C          0.08323000       0.68268000       0.48768000
    47  H          0.81212600       0.31287800       0.50461900
    48  H          0.18787400       0.68712200       0.49538100
    49  C         -0.00023000       0.27632000       0.61432000
    50  C          0.00023000       0.72368000       0.38568000
    51  H          0.95045100       0.24516300       0.67509400
    52  H          0.04954900       0.75483700       0.32490600
    53  C          0.79413000       0.98738000       0.58612000
    54  C          0.20587000       0.01262000       0.41388000
    55  H          0.88253700       0.91062500       0.59460700
    56  H          0.11746300       0.08937500       0.40539300
    57  C          0.75063000       0.04352000       0.67272000
    58  C          0.24937000       0.95648000       0.32728000
    59  H          0.81068800       0.00504000       0.73977300
    60  H          0.18931200      -0.00504000       0.26022700
    61  C          0.70724000       0.04443000       0.48662000
    62  C          0.29276000       0.95557000       0.51338000
    63  H          0.73769200       0.00641900       0.42749800
    64  H          0.26230800      -0.00641900       0.57250200
    65  N          0.73960170       0.31952130       0.02197130
    66  N          0.26039830       0.68047870       0.97802870
    67  H          0.69670900       0.35600900       0.95370100
    68  H          0.30329100       0.64399100       0.04629900
    69  C          0.91072000       0.31879150       0.02817140
    70  C          0.08928000       0.68120850       0.97182860
    71  C          0.72342000       0.19355150       0.05316140
    72  C          0.27658000       0.80644850       0.94683860
    73  C          0.97783000       0.35932180       0.93301840
    74  C          0.02217000       0.64067820       0.06698160
    75  H          0.91832800       0.38353000       0.86585800
    76  H          0.08167200       0.61647000       0.13414200
    77  C         -0.00428000       0.28341180       0.12882150
    78  C          0.00428000       0.71658820       0.87117850
    79  H          0.94798500       0.25665400       0.19229100
    80  H          0.05201500       0.74334600       0.80770900
    81  C          0.13603000       0.36332000       0.93936810
    82  C          0.86397000       0.63668000       0.06063190
    83  H          0.18424000       0.38942200       0.87593500
    84  H          0.81576000       0.61057800       0.12406500
    85  C          0.22153000       0.32872000       0.03922000
    86  C          0.77847000       0.67128000       0.96078000
    87  H          0.32709600       0.33255900       0.04307700
    88  H          0.67290400       0.66744100       0.95692300
    89  C          0.15233000       0.28842000       0.13372190
    90  C          0.84767000       0.71158000       0.86627810
    91  H          0.21163100       0.26449500       0.20091400
    92  H          0.78836900       0.73550500       0.79908600
    93  C          0.77323000       0.11442000       0.98227830
    94  C          0.22677000       0.88558000       0.01772170
    95  H          0.82134600       0.13776700       0.91790700
    96  H          0.17865400       0.86223300       0.08209300
    97  C          0.65213000       0.16132000       0.14828180
    98  C          0.34787000       0.83868000       0.85171820
    99  H          0.61887500       0.21595300       0.19556900
   100  H          0.38112500       0.78404700       0.80443100
   101  C          0.67873000       0.96548000       0.10275180
   102  C          0.32127000       0.03452000       0.89724820
   103  H          0.66250200       0.88834500       0.11941800
   104  H          0.33749800       0.11165500       0.88058200
   105  C          0.63073000       0.04542000       0.17252190
   106  C          0.36927000       0.95458000       0.82747810
   107  H          0.58308300       0.02172700       0.23704200
   108  H          0.41691700       0.97827300       0.76295800
   109  C          0.75054000      -0.00082000       0.00832000
   110  C          0.24946000       0.00082000      -0.00832000
   111  H          0.78432300       0.94419500       0.96136500
   112  H          0.21567700       0.05580500       0.03863500
