data_LUJKEH
_symmetry_space_group_name_H-M    'P1'
_symmetry_Int_Tables_number       1
loop_
_symmetry_equiv_pos_site_id
_symmetry_equiv_pos_as_xyz
1 x,y,z
_cell_length_a                   6.474713
_cell_length_b                   7.570615
_cell_length_c                   12.4343
_cell_angle_alpha                91.283
_cell_angle_beta                 103.273
_cell_angle_gamma                114.243
loop_
_atom_site_label
_atom_site_type_symbol
_atom_site_fract_x
_atom_site_fract_y
_atom_site_fract_z
     1  Br         0.87008500       0.45953400       0.65353200
     2  Br         0.12991500       0.54046600       0.34646800
     3  Br         0.52394500       0.28438400       0.40833200
     4  Br         0.47605500       0.71561600       0.59166800
     5  C          0.76115000       0.03824000       0.39902000
     6  C          0.23885000       0.96176000       0.60098000
     7  C          0.03755000       0.17114000       0.62132000
     8  C         -0.03755000       0.82886000       0.37868000
     9  C          0.74045000       0.18004000       0.46362000
    10  C          0.25955000       0.81996000       0.53638000
    11  C          0.17075000       0.22704000       0.74032000
    12  C          0.82925000       0.77296000       0.25968000
    13  C          0.88265000       0.24894000       0.57512000
    14  C          0.11735000       0.75106000       0.42488000
    15  C          0.60825000       0.95756000       0.28482000
    16  C          0.39175000       0.04244000       0.71518000
    17  O          0.36384000       0.18893000       0.77016170
    18  O          0.63616000       0.81107000       0.22983830
    19  O          0.13214000       0.30653000       0.81220180
    20  O          0.86786000       0.69347000       0.18779820
    21  O          0.45685000      -0.00134000       0.23462000
    22  O          0.54315000       0.00134000       0.76538000
    23  C          0.06875000       0.03234000       0.55562000
    24  C          0.93125000       0.96766000       0.44438000
    25  S         -0.03446870       0.85358110       0.88467600
    26  S          0.03446870       0.14641890       0.11532400
    27  O         -0.03726000       0.82293000       0.76409170
    28  O          0.03726000       0.17707000       0.23590830
    29  C          0.69826000       0.66805000       0.90143000
    30  C          0.30174000       0.33195000       0.09857000
    31  H          0.56500000       0.68890000       0.85830000
    32  H          0.43500000       0.31110000       0.14170000
    33  H          0.69970000       0.67380000       0.98040000
    34  H          0.30030000       0.32620000       0.01960000
    35  H          0.68340000       0.53950000       0.87470000
    36  H          0.31660000       0.46050000       0.12530000
    37  C          0.16246000       0.76155000       0.96083000
    38  C          0.83754000       0.23845000       0.03917000
    39  H          0.11780000       0.62830000       0.92730000
    40  H          0.88220000       0.37170000       0.07270000
    41  H          0.15400000       0.76030000       0.03850000
    42  H          0.84600000       0.23970000       0.96150000
    43  H          0.32300000       0.84550000       0.95810000
    44  H          0.67700000       0.15450000       0.04190000
