data_LUKMIN
_symmetry_space_group_name_H-M    'P1'
_symmetry_Int_Tables_number       1
loop_
_symmetry_equiv_pos_site_id
_symmetry_equiv_pos_as_xyz
1 x,y,z
_cell_length_a                   17.387616
_cell_length_b                   4.02134
_cell_length_c                   24.0982
_cell_angle_alpha                90.0
_cell_angle_beta                 106.2452
_cell_angle_gamma                90.0
loop_
_atom_site_label
_atom_site_type_symbol
_atom_site_fract_x
_atom_site_fract_y
_atom_site_fract_z
     1  I          0.10072870       0.33191300       0.40546450
     2  I          0.89927130       0.83191300       0.09453550
     3  I          0.89927130       0.66808700       0.59453550
     4  I          0.10072870       0.16808700       0.90546450
     5  F          0.16178600       0.96286000       0.52834500
     6  F          0.83821400       0.46286000       0.97165500
     7  F          0.83821400       0.03714000       0.47165500
     8  F          0.16178600       0.53714000       0.02834500
     9  F          0.91506200       0.30864000       0.40219500
    10  F          0.08493800       0.80864000       0.09780500
    11  F          0.08493800       0.69136000       0.59780500
    12  F          0.91506200       0.19136000       0.90219500
    13  C          0.04116100       0.14134000       0.46259700
    14  C          0.95883900       0.64134000       0.03740300
    15  C          0.95883900       0.85866000       0.53740300
    16  C          0.04116100       0.35866000       0.96259700
    17  C          0.08154100      -0.01575000       0.51339700
    18  C          0.91845900       0.48425000       0.98660300
    19  C          0.91845900       0.01575000       0.48660300
    20  C          0.08154100       0.51575000       0.01339700
    21  C          0.95840890       0.15375000       0.45036700
    22  C          0.04159110       0.65375000       0.04963300
    23  C          0.04159110       0.84625000       0.54963300
    24  C          0.95840890       0.34625000       0.95036700
    25  N          0.59081100       0.55907000       0.42010900
    26  N          0.40918900       0.05907000       0.07989100
    27  N          0.40918900       0.44093000       0.57989100
    28  N          0.59081100       0.94093000       0.92010900
    29  C          0.52586110       0.49516000       0.37589800
    30  C          0.47413890      -0.00484000       0.12410200
    31  C          0.47413890       0.50484000       0.62410200
    32  C          0.52586110       0.00484000       0.87589800
    33  C          0.53099120       0.35376000       0.32478100
    34  C          0.46900880       0.85376000       0.17521900
    35  C          0.46900880       0.64624000       0.67521900
    36  C          0.53099120       0.14624000       0.82478100
    37  H          0.48461200       0.32460000       0.29479000
    38  H          0.51538800       0.82460000       0.20521000
    39  H          0.51538800       0.67540000       0.70521000
    40  H          0.48461200       0.17540000       0.79479000
    41  C          0.60568150       0.27697000       0.31836130
    42  C          0.39431850       0.77697000       0.18163870
    43  C          0.39431850       0.72303000       0.68163870
    44  C          0.60568150       0.22303000       0.81836130
    45  H          0.60661800       0.16770000       0.28529000
    46  H          0.39338200       0.66770000       0.21471000
    47  H          0.39338200       0.83230000       0.71471000
    48  H          0.60661800       0.33230000       0.78529000
    49  C          0.67222140       0.33547000       0.36376140
    50  C          0.32777860       0.83547000       0.13623860
    51  C          0.32777860       0.66453000       0.63623860
    52  C          0.67222140       0.16453000       0.86376140
    53  H          0.72371100       0.30070000       0.36071300
    54  H          0.27628900       0.80070000       0.13928700
    55  H          0.27628900       0.69930000       0.63928700
    56  H          0.72371100       0.19930000       0.86071300
    57  C          0.66207140       0.47349000       0.41267130
    58  C          0.33792860      -0.02651000       0.08732870
    59  C          0.33792860       0.52651000       0.58732870
    60  C          0.66207140       0.02651000       0.91267130
    61  H          0.70541300       0.52790000       0.44321000
    62  H          0.29458700       0.02790000       0.05679000
    63  H          0.29458700       0.47210000       0.55679000
    64  H          0.70541300      -0.02790000       0.94321000
    65  N          0.38143800       0.50904000       0.34232600
    66  N          0.61856200       0.00904000       0.15767400
    67  N          0.61856200       0.49096000       0.65767400
    68  N          0.38143800      -0.00904000       0.84232600
    69  C          0.44730110       0.58725000       0.38491800
    70  C          0.55269890       0.08725000       0.11508200
    71  C          0.55269890       0.41275000       0.61508200
    72  C          0.44730110       0.91275000       0.88491800
    73  C          0.44322130       0.74706000       0.43528900
    74  C          0.55677870       0.24706000       0.06471100
    75  C          0.55677870       0.25294000       0.56471100
    76  C          0.44322130       0.75294000       0.93528900
    77  H          0.49211000       0.78660000       0.46109000
    78  H          0.50789000       0.28660000       0.03891000
    79  H          0.50789000       0.21340000       0.53891000
    80  H          0.49211000       0.71340000       0.96109000
    81  C          0.36920140       0.83136000       0.44174900
    82  C          0.63079860       0.33136000       0.05825100
    83  C          0.63079860       0.16864000       0.55825100
    84  C          0.36920140       0.66864000       0.94174900
    85  H          0.36391400       0.93760000       0.47558000
    86  H          0.63608600       0.43760000       0.02442000
    87  H          0.63608600       0.06240000       0.52442000
    88  H          0.36391400       0.56240000       0.97558000
    89  C          0.30106120       0.75095000       0.39829900
    90  C          0.69893880       0.25095000       0.10170100
    91  C          0.69893880       0.24905000       0.60170100
    92  C          0.30106120       0.74905000       0.89829900
    93  H          0.25049000       0.80860000       0.39911000
    94  H          0.74951000       0.30860000       0.10089000
    95  H          0.74951000       0.19140000       0.60089000
    96  H          0.25049000       0.69140000       0.89911000
    97  C          0.30976100       0.58605000       0.34938700
    98  C          0.69023900       0.08605000       0.15061300
    99  C          0.69023900       0.41395000       0.65061300
   100  C          0.30976100       0.91395000       0.84938700
   101  N          0.16622900       0.54445000       0.30840700
   102  N          0.83377100       0.04445000       0.19159300
   103  N          0.83377100       0.45555000       0.69159300
   104  N          0.16622900       0.95555000       0.80840700
   105  C          0.23836100       0.48905000       0.30117700
   106  C          0.76163900      -0.01095000       0.19882300
   107  C          0.76163900       0.51095000       0.69882300
   108  C          0.23836100       0.01095000       0.80117700
   109  C          0.24774110       0.35026000       0.25083900
   110  C          0.75225890       0.85026000       0.24916100
   111  C          0.75225890       0.64974000       0.74916100
   112  C          0.24774110       0.14974000       0.75083900
   113  H          0.29821000       0.31160000       0.24681000
   114  H          0.70179000       0.81160000       0.25319000
   115  H          0.70179000       0.68840000       0.75319000
   116  H          0.29821000       0.18840000       0.74681000
   117  C          0.18088130       0.27597000       0.20595100
   118  C          0.81911870       0.77597000       0.29404900
   119  C          0.81911870       0.72403000       0.79404900
   120  C          0.18088130       0.22403000       0.70595100
   121  H          0.18561600       0.18660000       0.17128000
   122  H          0.81438400       0.68660000       0.32872000
   123  H          0.81438400       0.81340000       0.82872000
   124  H          0.18561600       0.31340000       0.67128000
   125  C          0.10615120       0.34236000       0.21255900
   126  C          0.89384880       0.84236000       0.28744100
   127  C          0.89384880       0.65764000       0.78744100
   128  C          0.10615120       0.15764000       0.71255900
   129  H          0.05971100       0.29960000       0.18539000
   130  H          0.94028900       0.79960000       0.31461000
   131  H          0.94028900       0.70040000       0.81461000
   132  H          0.05971100       0.20040000       0.68539000
   133  C          0.10181110       0.47157000       0.26396900
   134  C          0.89818890      -0.02843000       0.23603100
   135  C          0.89818890       0.52843000       0.73603100
   136  C          0.10181110       0.02843000       0.76396900
   137  H          0.05211000       0.51670000       0.26951000
   138  H          0.94789000       0.01670000       0.23049000
   139  H          0.94789000       0.48330000       0.73049000
   140  H          0.05211000      -0.01670000       0.76951000
