data_LUKVEW
_symmetry_space_group_name_H-M    'P1'
_symmetry_Int_Tables_number       1
loop_
_symmetry_equiv_pos_site_id
_symmetry_equiv_pos_as_xyz
1 x,y,z
_cell_length_a                   26.88637
_cell_length_b                   7.73253
_cell_length_c                   10.09584
_cell_angle_alpha                90.0
_cell_angle_beta                 90.0
_cell_angle_gamma                90.0
loop_
_atom_site_label
_atom_site_type_symbol
_atom_site_fract_x
_atom_site_fract_y
_atom_site_fract_z
     1  Br         0.30122200       0.74570700       0.71172400
     2  Br         0.69877800       0.24570700       0.28827600
     3  Br         0.80122200       0.74570700       0.78827600
     4  Br         0.19877800       0.24570700       0.21172400
     5  Br         0.55147200       0.24923600       0.77247400
     6  Br         0.44852800       0.74923600       0.22752600
     7  Br         0.05147200       0.24923600       0.72752600
     8  Br         0.94852800       0.74923600       0.27247400
     9  Cl         0.62338300       0.68562140       0.47655800
    10  Cl         0.37661700       0.18562140       0.52344200
    11  Cl         0.12338300       0.68562140       0.02344200
    12  Cl         0.87661700       0.18562140       0.97655800
    13  O          0.67051100       0.73887000       0.52483000
    14  O          0.32948900       0.23887000       0.47517000
    15  O          0.17051100       0.73887000       0.97517000
    16  O          0.82948900       0.23887000       0.02483000
    17  O          0.58737130       0.80926000       0.51095000
    18  O          0.41262870       0.30926000       0.48905000
    19  O          0.08737130       0.80926000      -0.01095000
    20  O          0.91262870       0.30926000       0.01095000
    21  O          0.62709160       0.66408000       0.33713000
    22  O          0.37290840       0.16408000       0.66287000
    23  O          0.12709160       0.66408000       0.16287000
    24  O          0.87290840       0.16408000       0.83713000
    25  O          0.60980130       0.52575000       0.53604000
    26  O          0.39019870       0.02575000       0.46396000
    27  O          0.10980130       0.52575000       0.96396000
    28  O          0.89019870       0.02575000       0.03604000
    29  Cl         0.62526300       0.69245140       0.97792800
    30  Cl         0.37473700       0.19245140       0.02207200
    31  Cl         0.12526300       0.69245140       0.52207200
    32  Cl         0.87473700       0.19245140       0.47792800
    33  O          0.63721160       0.86366000       0.01865000
    34  O          0.36278840       0.36366000       0.98135000
    35  O          0.13721160       0.86366000       0.48135000
    36  O          0.86278840       0.36366000       0.51865000
    37  O          0.62726160       0.67088000       0.83913000
    38  O          0.37273840       0.17088000       0.16087000
    39  O          0.12726160       0.67088000       0.66087000
    40  O          0.87273840       0.17088000       0.33913000
    41  O          0.65789130       0.57516000       0.04214000
    42  O          0.34210870       0.07516000       0.95786000
    43  O          0.15789130       0.57516000       0.45786000
    44  O          0.84210870       0.07516000       0.54214000
    45  O          0.57557110       0.65957000       0.01804000
    46  O          0.42442890       0.15957000       0.98196000
    47  O          0.07557110       0.65957000       0.48196000
    48  O          0.92442890       0.15957000       0.51804000
    49  N          0.50159110       0.63265000       0.76433000
    50  N          0.49840890       0.13265000       0.23567000
    51  N          0.00159110       0.63265000       0.73567000
    52  N         -0.00159110       0.13265000       0.26433000
    53  H          0.53253100       0.56773300       0.77717700
    54  H          0.46746900       0.06773300       0.22282300
    55  H          0.03253100       0.56773300       0.72282300
    56  H          0.96746900       0.06773300       0.27717700
    57  C          0.51227130       0.82056000       0.77504000
    58  C          0.48772870       0.32056000       0.22496000
    59  C          0.01227130       0.82056000       0.72496000
    60  C          0.98772870       0.32056000       0.27504000
    61  H          0.53990700       0.85103900       0.71790000
    62  H          0.46009300       0.35103900       0.28210000
    63  H          0.03990700       0.85103900       0.78210000
    64  H          0.96009300       0.35103900       0.21790000
    65  H          0.52110500       0.84953300       0.86549400
    66  H          0.47889500       0.34953300       0.13450600
    67  H          0.02110500       0.84953300       0.63450600
    68  H          0.97889500       0.34953300       0.36549400
    69  N          0.42293900       0.79534000       0.73173000
    70  N          0.57706100       0.29534000       0.26827000
    71  N          0.92293900       0.79534000       0.76827000
    72  N          0.07706100       0.29534000       0.23173000
    73  H          0.39192300       0.85986100       0.71914300
    74  H          0.60807700       0.35986100       0.28085700
    75  H          0.89192300       0.85986100       0.78085700
    76  H          0.10807700       0.35986100       0.21914300
    77  C          0.46538140       0.92016000       0.73334000
    78  C          0.53461860       0.42016000       0.26666000
    79  C          0.96538140       0.92016000       0.76666000
    80  C          0.03461860       0.42016000       0.23334000
    81  H          0.45875300       0.01293900       0.79542300
    82  H          0.54124700       0.51293900       0.20457700
    83  H          0.95875300       0.01293900       0.70457700
    84  H          0.04124700       0.51293900       0.29542300
    85  H          0.46997500       0.96999600       0.64598200
    86  H          0.53002500       0.46999600       0.35401800
    87  H          0.96997500       0.96999600       0.85401800
    88  H          0.03002500       0.46999600       0.14598200
    89  C          0.42871130       0.67046000       0.62064000
    90  C          0.57128870       0.17046000       0.37936000
    91  C          0.92871130       0.67046000       0.87936000
    92  C          0.07128870       0.17046000       0.12064000
    93  H          0.42462500       0.72929100       0.53645500
    94  H          0.57537500       0.22929100       0.46354500
    95  H          0.92462500       0.72929100       0.96354500
    96  H          0.07537500       0.22929100       0.03645500
    97  H          0.40368600       0.58039400       0.62690000
    98  H          0.59631400       0.08039400       0.37310000
    99  H          0.90368600       0.58039400       0.87310000
   100  H          0.09631400       0.08039400       0.12690000
   101  C          0.48080130       0.59116000       0.62954000
   102  C          0.51919870       0.09116000       0.37046000
   103  C          0.98080130       0.59116000       0.87046000
   104  C          0.01919870       0.09116000       0.12954000
   105  H          0.47902400       0.46681400       0.61734400
   106  H          0.52097600       0.96681400       0.38265600
   107  H          0.97902400       0.46681400       0.88265600
   108  H          0.02097600       0.96681400       0.11734400
   109  H          0.50205500       0.63891500       0.56107700
   110  H          0.49794500       0.13891500       0.43892300
   111  H          0.00205500       0.63891500       0.93892300
   112  H         -0.00205500       0.13891500       0.06107700
   113  C          0.42036140       0.70127000       0.86053000
   114  C          0.57963860       0.20127000       0.13947000
   115  C          0.92036140       0.70127000       0.63947000
   116  C          0.07963860       0.20127000       0.36053000
   117  H          0.38976600       0.63506300       0.86558300
   118  H          0.61023400       0.13506300       0.13441700
   119  H          0.88976600       0.63506300       0.63441700
   120  H          0.11023400       0.13506300       0.36558300
   121  H          0.42089800       0.78292600       0.93335600
   122  H          0.57910200       0.28292600       0.06664400
   123  H          0.92089800       0.78292600       0.56664400
   124  H          0.07910200       0.28292600       0.43335600
   125  C          0.46501140       0.58086000       0.86914000
   126  C          0.53498860       0.08086000       0.13086000
   127  C          0.96501140       0.58086000       0.63086000
   128  C          0.03498860       0.08086000       0.36914000
   129  H          0.48024100       0.58948000       0.95595800
   130  H          0.51975900       0.08948000       0.04404200
   131  H          0.98024100       0.58948000       0.54404200
   132  H          0.01975900       0.08948000       0.45595800
   133  H          0.45456200       0.46205400       0.85552900
   134  H          0.54543800       0.96205400       0.14447100
   135  H          0.95456200       0.46205400       0.64447100
   136  H          0.04543800       0.96205400       0.35552900
   137  C          0.26214140       0.31767000       0.76615000
   138  C          0.73785860       0.81767000       0.23385000
   139  C          0.76214140       0.31767000       0.73385000
   140  C          0.23785860       0.81767000       0.26615000
   141  H          0.27943500       0.36429500       0.68977600
   142  H          0.72056500       0.86429500       0.31022400
   143  H          0.77943500       0.36429500       0.81022400
   144  H          0.22056500       0.86429500       0.18977600
   145  H          0.28282000       0.33519800       0.84370000
   146  H          0.71718000       0.83519800       0.15630000
   147  H          0.78282000       0.33519800       0.65630000
   148  H          0.21718000       0.83519800       0.34370000
   149  N          0.25273110       0.13055000       0.74693000
   150  N          0.74726890       0.63055000       0.25307000
   151  N          0.75273110       0.13055000       0.75307000
   152  N          0.24726890       0.63055000       0.24693000
   153  H          0.28467600       0.06965300       0.74328100
   154  H          0.71532400       0.56965300       0.25671900
   155  H          0.78467600       0.06965300       0.75671900
   156  H          0.21532400       0.56965300       0.24328100
   157  C          0.17803130       0.20896000       0.62103000
   158  C          0.82196870       0.70896000       0.37897000
   159  C          0.67803130       0.20896000       0.87897000
   160  C          0.32196870       0.70896000       0.12103000
   161  H          0.17984400       0.30059300       0.55563300
   162  H          0.82015600       0.80059300       0.44436700
   163  H          0.67984400       0.30059300       0.94436700
   164  H          0.32015600       0.80059300       0.05563300
   165  H          0.14977600       0.13599600       0.59983200
   166  H          0.85022400       0.63599600       0.40016800
   167  H          0.64977600       0.13599600       0.90016800
   168  H          0.35022400       0.63599600       0.09983200
   169  N          0.17175900       0.28375000       0.75413000
   170  N          0.82824100       0.78375000       0.24587000
   171  N          0.67175900       0.28375000       0.74587000
   172  N          0.32824100       0.78375000       0.25413000
   173  H          0.13975600       0.34426400       0.75758200
   174  H          0.86024400       0.84426400       0.24241800
   175  H          0.63975600       0.34426400       0.74241800
   176  H          0.36024400       0.84426400       0.25758200
   177  C          0.22279150       0.05927000       0.85784000
   178  C          0.77720850       0.55927000       0.14216000
   179  C          0.72279150       0.05927000       0.64216000
   180  C          0.27720850       0.55927000       0.35784000
   181  H          0.23914100       0.08284000       0.94151800
   182  H          0.76085900       0.58284000       0.05848200
   183  H          0.73914100       0.08284000       0.55848200
   184  H          0.26085900       0.58284000       0.44151800
   185  H          0.21954900       0.93488200       0.84820500
   186  H          0.78045100       0.43488200       0.15179500
   187  H          0.71954900       0.93488200       0.65179500
   188  H          0.28045100       0.43488200       0.34820500
   189  C          0.22558140       0.10267000       0.61824000
   190  C          0.77441860       0.60267000       0.38176000
   191  C          0.72558140       0.10267000       0.88176000
   192  C          0.27441860       0.60267000       0.11824000
   193  H          0.21770700       0.98102100       0.60734900
   194  H          0.78229300       0.48102100       0.39265100
   195  H          0.71770700       0.98102100       0.89265100
   196  H          0.28229300       0.48102100       0.10734900
   197  H          0.24629500       0.13846300       0.54450400
   198  H          0.75370500       0.63846300       0.45549600
   199  H          0.74629500       0.13846300       0.95549600
   200  H          0.25370500       0.63846300       0.04450400
   201  C          0.21226150       0.40977000       0.78415000
   202  C          0.78773850       0.90977000       0.21585000
   203  C          0.71226150       0.40977000       0.71585000
   204  C          0.28773850       0.90977000       0.28415000
   205  H          0.20909100       0.45131100       0.87437700
   206  H          0.79090900       0.95131100       0.12562300
   207  H          0.70909100       0.45131100       0.62562300
   208  H          0.29090900       0.95131100       0.37437700
   209  H          0.21014500       0.50803300       0.72471900
   210  H          0.78985500       0.00803300       0.27528100
   211  H          0.71014500       0.50803300       0.77528100
   212  H          0.28985500       0.00803300       0.22471900
   213  C          0.17166140       0.14337000       0.85574000
   214  C          0.82833860       0.64337000       0.14426000
   215  C          0.67166140       0.14337000       0.64426000
   216  C          0.32833860       0.64337000       0.35574000
   217  H          0.14652800       0.05786800       0.83406400
   218  H          0.85347200       0.55786800       0.16593600
   219  H          0.64652800       0.05786800       0.66593600
   220  H          0.35347200       0.55786800       0.33406400
   221  H          0.16403200       0.19111700       0.94216700
   222  H          0.83596800       0.69111700       0.05783300
   223  H          0.66403200       0.19111700       0.55783300
   224  H          0.33596800       0.69111700       0.44216700
