data_LULMIS
_symmetry_space_group_name_H-M    'P1'
_symmetry_Int_Tables_number       1
loop_
_symmetry_equiv_pos_site_id
_symmetry_equiv_pos_as_xyz
1 x,y,z
_cell_length_a                   15.0433
_cell_length_b                   7.222313
_cell_length_c                   23.2294
_cell_angle_alpha                90.0
_cell_angle_beta                 100.8635
_cell_angle_gamma                90.0
loop_
_atom_site_label
_atom_site_type_symbol
_atom_site_fract_x
_atom_site_fract_y
_atom_site_fract_z
     1  S          0.38836700       0.76662000       0.67551400
     2  S          0.11163300       0.26662000       0.82448600
     3  S          0.61163300       0.23338000       0.32448600
     4  S          0.88836700       0.73338000       0.17551400
     5  N          0.40532180       0.80354000       0.56285110
     6  N          0.09467820       0.30354000       0.93714890
     7  N          0.59467820       0.19646000       0.43714890
     8  N          0.90532180       0.69646000       0.06285110
     9  H          0.37539300       0.80821400       0.52747600
    10  H          0.12460700       0.30821400       0.97252400
    11  H          0.62460700       0.19178600       0.47252400
    12  H          0.87539300       0.69178600       0.02747600
    13  N          0.23828190       0.73924000       0.52036100
    14  N          0.26171810       0.23924000       0.97963900
    15  N          0.76171810       0.26076000       0.47963900
    16  N          0.73828190       0.76076000       0.02036100
    17  N          0.26569190       0.73894000       0.58019100
    18  N          0.23430810       0.23894000       0.91980900
    19  N          0.73430810       0.26106000       0.41980900
    20  N          0.76569190       0.76106000       0.08019100
    21  H          0.22760300       0.71784600       0.60275800
    22  H          0.27239700       0.21784600       0.89724200
    23  H          0.77239700       0.28215400       0.39724200
    24  H          0.72760300       0.78215400       0.10275800
    25  O          0.66412000       0.75975000       0.47089140
    26  O          0.83588000       0.25975000       0.02910860
    27  O          0.33588000       0.24025000       0.52910860
    28  O          0.16412000       0.74025000       0.97089140
    29  C          0.16932000       0.65525000       0.39462130
    30  C          0.33068000       0.15525000       0.10537870
    31  C          0.83068000       0.34475000       0.60537870
    32  C          0.66932000       0.84475000       0.89462130
    33  C          0.11722000       0.69175000       0.43797130
    34  C          0.38278000       0.19175000       0.06202870
    35  C          0.88278000       0.30825000       0.56202870
    36  C          0.61722000       0.80825000       0.93797130
    37  C          0.49962000       0.83005000       0.56732130
    38  C          0.00038000       0.33005000       0.93267870
    39  C          0.50038000       0.16995000       0.43267870
    40  C         -0.00038000       0.66995000       0.06732130
    41  C          0.53422000       0.77625000       0.51873140
    42  C          0.96578000       0.27625000       0.98126860
    43  C          0.46578000       0.22375000       0.48126860
    44  C          0.03422000       0.72375000       0.01873140
    45  H          0.49684800       0.71810200       0.48747800
    46  H          0.00315200       0.21810200       0.01252200
    47  H          0.50315200       0.28189800       0.51252200
    48  H         -0.00315200       0.78189800       0.98747800
    49  C          0.02412000       0.73335000       0.42209140
    50  C          0.47588000       0.23335000       0.07790860
    51  C          0.97588000       0.26665000       0.57790860
    52  C          0.52412000       0.76665000       0.92209140
    53  C          0.12703000       0.67155000       0.33412130
    54  C          0.37297000       0.17155000       0.16587870
    55  C          0.87297000       0.32845000       0.66587870
    56  C          0.62703000       0.82845000       0.83412130
    57  C          0.35352000       0.77245000       0.60287130
    58  C          0.14648000       0.27245000       0.89712870
    59  C          0.64648000       0.22755000       0.39712870
    60  C          0.85352000       0.72755000       0.10287130
    61  C          0.15642000       0.69185000       0.50093130
    62  C          0.34358000       0.19185000      -0.00093130
    63  C          0.84358000       0.30815000       0.49906870
    64  C          0.65642000       0.80815000       0.00093130
    65  H          0.12033300       0.65613800       0.52744000
    66  H          0.37966700       0.15613800       0.97256000
    67  H          0.87966700       0.34386200       0.47256000
    68  H          0.62033300       0.84386200       0.02744000
    69  C          0.25962000       0.59025000       0.40624140
    70  C          0.24038000       0.09025000       0.09375860
    71  C          0.74038000       0.40975000       0.59375860
    72  C          0.75962000       0.90975000       0.90624140
    73  H          0.28789700       0.57199600       0.44500000
    74  H          0.21210300       0.07199600       0.05500000
    75  H          0.71210300       0.42800400       0.55500000
    76  H          0.78789700       0.92800400       0.94500000
    77  C          0.98288000       0.74425000       0.36129150
    78  C          0.51712000       0.24425000       0.13870850
    79  C          0.01712000       0.25575000       0.63870850
    80  C          0.48288000       0.75575000       0.86129150
    81  C          0.55522000       0.91325000       0.61483140
    82  C          0.94478000       0.41325000       0.88516860
    83  C          0.44478000       0.08675000       0.38516860
    84  C          0.05522000       0.58675000       0.11483140
    85  H          0.53280600       0.94773300       0.64792000
    86  H          0.96719400       0.44773300       0.85208000
    87  H          0.46719400       0.05226700       0.35208000
    88  H          0.03280600       0.55226700       0.14792000
    89  C          0.03653000       0.71575000       0.31941140
    90  C          0.46347000       0.21575000       0.18058860
    91  C          0.96347000       0.28425000       0.68058860
    92  C          0.53653000       0.78425000       0.81941140
    93  H          0.01024600       0.72697200       0.27998800
    94  H          0.48975400       0.22697200       0.22001200
    95  H         -0.01024600       0.27302800       0.72001200
    96  H          0.51024600       0.77302800       0.77998800
    97  C          0.62393000       0.80876000       0.51657170
    98  C          0.87607000       0.30876000       0.98342830
    99  C          0.37607000       0.19124000       0.48342830
   100  C          0.12393000       0.69124000       0.01657170
   101  C          0.17993000       0.63586000       0.29019150
   102  C          0.32007000       0.13586000       0.20980850
   103  C          0.82007000       0.36414000       0.70980850
   104  C          0.67993000       0.86414000       0.79019150
   105  H          0.15372300       0.65296500       0.25097500
   106  H          0.34627700       0.15296500       0.24902500
   107  H          0.84627700       0.34703500       0.74902500
   108  H          0.65372300       0.84703500       0.75097500
   109  C          0.30653000       0.55336000       0.36315170
   110  C          0.19347000       0.05336000       0.13684830
   111  C          0.69347000       0.44664000       0.63684830
   112  C          0.80653000       0.94664000       0.86315170
   113  H          0.36587800       0.51094600       0.37271800
   114  H          0.13412200       0.01094600       0.12728200
   115  H          0.63412200       0.48905400       0.62728200
   116  H          0.86587800      -0.01094600       0.87271800
   117  C          0.96727000       0.77046000       0.46290180
   118  C          0.53273000       0.27046000       0.03709820
   119  C          0.03273000       0.22954000       0.53709820
   120  C          0.46727000       0.72954000       0.96290180
   121  H         -0.00847200       0.76542800       0.50278000
   122  H          0.50847200       0.26542800      -0.00278000
   123  H          0.00847200       0.23457200       0.49722000
   124  H          0.49152800       0.73457200       0.00278000
   125  C          0.64463000       0.94296000       0.61152170
   126  C          0.85537000       0.44296000       0.88847830
   127  C          0.35537000       0.05704000       0.38847830
   128  C          0.14463000       0.55704000       0.11152170
   129  H          0.68231700      -0.00117500       0.64302800
   130  H          0.81768300       0.49882500       0.85697200
   131  H          0.31768300       0.00117500       0.35697200
   132  H          0.18231700       0.50117500       0.14302800
   133  C          0.67983000       0.89326000       0.56362190
   134  C          0.82017000       0.39326000       0.93637810
   135  C          0.32017000       0.10674000       0.43637810
   136  C          0.17983000       0.60674000       0.06362190
   137  H          0.74035300       0.91573100       0.56256800
   138  H          0.75964700       0.41573100       0.93743200
   139  H          0.25964700       0.08426900       0.43743200
   140  H          0.24035300       0.58426900       0.06256800
   141  C          0.88907000       0.78836000       0.34522000
   142  C          0.61093000       0.28836000       0.15478000
   143  C          0.11093000       0.21164000       0.65478000
   144  C          0.38907000       0.71164000       0.84522000
   145  H          0.86228600       0.79252400       0.30574700
   146  H          0.63771400       0.29252400       0.19425300
   147  H          0.13771400       0.20747600       0.69425300
   148  H          0.36228600       0.70747600       0.80574700
   149  C          0.26563000       0.57897000       0.30375180
   150  C          0.23437000       0.07897000       0.19624820
   151  C          0.73437000       0.42103000       0.69624820
   152  C          0.76563000       0.92103000       0.80375180
   153  H          0.29827200       0.55605200       0.27426500
   154  H          0.20172800       0.05605200       0.22573500
   155  H          0.70172800       0.44394800       0.72573500
   156  H          0.79827200       0.94394800       0.77426500
   157  C          0.60833000       0.68607000       0.41965190
   158  C          0.89167000       0.18607000       0.08034810
   159  C          0.39167000       0.31393000       0.58034810
   160  C          0.10833000       0.81393000       0.91965190
   161  H          0.64522300       0.65327500       0.39167400
   162  H          0.85477700       0.15327500       0.10832600
   163  H          0.35477700       0.34672500       0.60832600
   164  H          0.14522300       0.84672500       0.89167400
   165  H          0.56461000       0.77712900       0.40288600
   166  H          0.93539000       0.27712900       0.09711400
   167  H          0.43539000       0.22287100       0.59711400
   168  H          0.06461000       0.72287100       0.90288600
   169  H          0.57762000       0.57775500       0.42984200
   170  H          0.92238000       0.07775500       0.07015800
   171  H          0.42238000       0.42224500       0.57015800
   172  H          0.07762000       0.92224500       0.92984200
   173  C          0.87787000       0.81327000       0.44522000
   174  C          0.62213000       0.31327000       0.05478000
   175  C          0.12213000       0.18673000       0.55478000
   176  C          0.37787000       0.68673000       0.94522000
   177  H          0.84228500       0.83596600       0.47312900
   178  H          0.65771500       0.33596600       0.02687100
   179  H          0.15771500       0.16403400       0.52687100
   180  H          0.34228500       0.66403400       0.97312900
   181  C          0.83917000       0.82337000       0.38532000
   182  C          0.66083000       0.32337000       0.11468000
   183  C          0.16083000       0.17663000       0.61468000
   184  C          0.33917000       0.67663000       0.88532000
   185  H          0.77847100       0.85467900       0.37372400
   186  H          0.72152900       0.35467900       0.12627600
   187  H          0.22152900       0.14532100       0.62627600
   188  H          0.27847100       0.64532100       0.87372400
   189  O          0.10602000       0.71404000       0.62747120
   190  O          0.39398000       0.21404000       0.87252880
   191  O          0.89398000       0.28596000       0.37252880
   192  O          0.60602000       0.78596000       0.12747120
   193  N          0.01143000       0.76626000       0.68742000
   194  N          0.48857000       0.26626000       0.81258000
   195  N          0.98857000       0.23374000       0.31258000
   196  N          0.51143000       0.73374000       0.18742000
   197  C          0.93607000       0.78986000       0.63198190
   198  C          0.56393000       0.28986000       0.86801810
   199  C          0.06393000       0.21014000       0.36801810
   200  C          0.43607000       0.71014000       0.13198190
   201  H          0.93505500       0.91582600       0.61876600
   202  H          0.56494500       0.41582600       0.88123400
   203  H          0.06494500       0.08417400       0.38123400
   204  H          0.43505500       0.58417400       0.11876600
   205  H          0.87846100       0.75887500       0.64148600
   206  H          0.62153900       0.25887500       0.85851400
   207  H          0.12153900       0.24112500       0.35851400
   208  H          0.37846100       0.74112500       0.14148600
   209  H          0.94817700       0.70913500       0.60152200
   210  H          0.55182300       0.20913500       0.89847800
   211  H          0.05182300       0.29086500       0.39847800
   212  H          0.44817700       0.79086500       0.10152200
   213  C          0.08794000       0.73307000       0.67803000
   214  C          0.41206000       0.23307000       0.82197000
   215  C          0.91206000       0.26693000       0.32197000
   216  C          0.58794000       0.76693000       0.17803000
   217  C          0.98397000       0.78858000       0.74421190
   218  C          0.51603000       0.28858000       0.75578810
   219  C          0.01603000       0.21142000       0.25578810
   220  C          0.48397000       0.71142000       0.24421190
   221  H          0.96607600       0.91453600       0.74864600
   222  H          0.53392400       0.41453600       0.75135400
   223  H          0.03392400       0.08546400       0.25135400
   224  H          0.46607600       0.58546400       0.24864600
   225  H          0.03387200       0.75803800       0.77502700
   226  H          0.46612800       0.25803800       0.72497300
   227  H          0.96612800       0.24196200       0.22497300
   228  H          0.53387200       0.74196200       0.27502700
   229  H          0.93401200       0.70767800       0.74622900
   230  H          0.56598800       0.20767800       0.75377100
   231  H          0.06598800       0.29232200       0.25377100
   232  H          0.43401200       0.79232200       0.24622900
   233  C          0.16263000       0.71808000       0.73441190
   234  C          0.33737000       0.21808000       0.76558810
   235  C          0.83737000       0.28192000       0.26558810
   236  C          0.66263000       0.78192000       0.23441190
   237  H          0.14822800       0.61810000       0.75836200
   238  H          0.35177200       0.11810000       0.74163800
   239  H          0.85177200       0.38190000       0.24163800
   240  H          0.64822800       0.88190000       0.25836200
   241  H          0.16545100       0.83180400       0.75601500
   242  H          0.33454900       0.33180400       0.74398500
   243  H          0.83454900       0.16819600       0.24398500
   244  H          0.66545100       0.66819600       0.25601500
   245  H          0.22008100       0.69472000       0.72355600
   246  H          0.27991900       0.19472000       0.77644400
   247  H          0.77991900       0.30528000       0.27644400
   248  H          0.72008100       0.80528000       0.22355600
