data_LULQOA
_symmetry_space_group_name_H-M    'P1'
_symmetry_Int_Tables_number       1
loop_
_symmetry_equiv_pos_site_id
_symmetry_equiv_pos_as_xyz
1 x,y,z
_cell_length_a                   5.72458
_cell_length_b                   11.133717
_cell_length_c                   12.381719
_cell_angle_alpha                66.4742
_cell_angle_beta                 87.5232
_cell_angle_gamma                89.6552
loop_
_atom_site_label
_atom_site_type_symbol
_atom_site_fract_x
_atom_site_fract_y
_atom_site_fract_z
     1  C          0.89985000       0.13393000       0.84542000
     2  C          0.10015000       0.86607000       0.15458000
     3  C          0.94684000       0.06952000       0.97762000
     4  C          0.05316000       0.93048000       0.02238000
     5  F          0.74314000       0.06047170       0.82031180
     6  F          0.25686000       0.93952830       0.17968820
     7  F          0.09634000       0.13607190       0.78281160
     8  F          0.90366000       0.86392810       0.21718840
     9  F          0.74063000       0.06211150       0.03633140
    10  F          0.25937000       0.93788850       0.96366860
    11  F          0.09013000       0.14754140       0.00346150
    12  F          0.90987000       0.85245860      -0.00346150
    13  I          0.77290300       0.32993414       0.79436513
    14  I          0.22709700       0.67006586       0.20563487
    15  C          0.39514000       0.71152000       0.78132000
    16  C          0.60486000       0.28848000       0.21868000
    17  C          0.24164000       0.59353000       0.85682000
    18  C          0.75836000       0.40647000       0.14318000
    19  H          0.10970000       0.58700000       0.81140000
    20  H          0.89030000       0.41300000       0.18860000
    21  H          0.18260000       0.60430000       0.92780000
    22  H          0.81740000       0.39570000       0.07220000
    23  H          0.33410000       0.51350000       0.87950000
    24  H          0.66590000       0.48650000       0.12050000
    25  C          0.58724000       0.73063000       0.85532000
    26  C          0.41276000       0.26937000       0.14468000
    27  H          0.67690000       0.64990000       0.88920000
    28  H          0.32310000       0.35010000       0.11080000
    29  H          0.51610000       0.75180000       0.91890000
    30  H          0.48390000       0.24820000       0.08110000
    31  H          0.69170000       0.80250000       0.80520000
    32  H          0.30830000       0.19750000       0.19480000
    33  C          0.25304000       0.83702000       0.72972000
    34  C          0.74696000       0.16298000       0.27028000
    35  H          0.14960000       0.84420000       0.79300000
    36  H          0.85040000       0.15580000       0.20700000
    37  H          0.36130000       0.91340000       0.70060000
    38  H          0.63870000       0.08660000       0.29940000
    39  C          0.10464000       0.84152000       0.62932000
    40  C          0.89536000       0.15848000       0.37068000
    41  H          0.01200000       0.92280000       0.60090000
    42  H         -0.01200000       0.07720000       0.39910000
    43  H         -0.00510000       0.76570000       0.65720000
    44  H          0.00510000       0.23430000       0.34280000
    45  C          0.26454000       0.83752000       0.52952000
    46  C          0.73546000       0.16248000       0.47048000
    47  H          0.37020000       0.91500000       0.50110000
    48  H          0.62980000       0.08500000       0.49890000
    49  H          0.16820000       0.84310000       0.46320000
    50  H          0.83180000       0.15690000       0.53680000
    51  C          0.41154000       0.71372000       0.56582000
    52  C          0.58846000       0.28628000       0.43418000
    53  C          0.26424000       0.59492000       0.57562000
    54  C          0.73576000       0.40508000       0.42438000
    55  H          0.35710000       0.51520000       0.60910000
    56  H          0.64290000       0.48480000       0.39090000
    57  H          0.21650000       0.60610000       0.49710000
    58  H          0.78350000       0.39390000       0.50290000
    59  H          0.12500000       0.58730000       0.62690000
    60  H          0.87500000       0.41270000       0.37310000
    61  C          0.61564000       0.73503000       0.47572000
    62  C          0.38436000       0.26497000       0.52428000
    63  H          0.71910000       0.80440000       0.47650000
    64  H          0.28090000       0.19560000       0.52350000
    65  H          0.55510000       0.76060000       0.39690000
    66  H          0.44490000       0.23940000       0.60310000
    67  H          0.70340000       0.65360000       0.49620000
    68  H          0.29660000       0.34640000       0.50380000
    69  N          0.51283000       0.68483180       0.68301170
    70  N          0.48717000       0.31516820       0.31698830
    71  O          0.67643000       0.59922160       0.71231150
    72  O          0.32357000       0.40077840       0.28768850
