data_LUMFHQ
_symmetry_space_group_name_H-M    'P1'
_symmetry_Int_Tables_number       1
loop_
_symmetry_equiv_pos_site_id
_symmetry_equiv_pos_as_xyz
1 x,y,z
_cell_length_a                   8.321
_cell_length_b                   20.7125
_cell_length_c                   12.4005
_cell_angle_alpha                90.0
_cell_angle_beta                 90.22
_cell_angle_gamma                90.0
loop_
_atom_site_label
_atom_site_type_symbol
_atom_site_fract_x
_atom_site_fract_y
_atom_site_fract_z
     1  Br         0.02760000       0.11700000       0.17420000
     2  Br         0.97240000       0.61700000       0.32580000
     3  Br         0.97240000       0.88300000       0.82580000
     4  Br         0.02760000       0.38300000       0.67420000
     5  C          0.83950000       0.28230000       0.25730000
     6  C          0.16050000       0.78230000       0.24270000
     7  C          0.16050000       0.71770000       0.74270000
     8  C          0.83950000       0.21770000       0.75730000
     9  C          0.22520000       0.46360000       0.92710000
    10  C          0.77480000       0.96360000       0.57290000
    11  C          0.77480000       0.53640000       0.07290000
    12  C          0.22520000       0.03640000       0.42710000
    13  C          0.27940000       0.50930000       0.14940000
    14  C          0.72060000       0.00930000       0.35060000
    15  C          0.72060000       0.49070000       0.85060000
    16  C          0.27940000       0.99070000       0.64940000
    17  C          0.66950000       0.19500000       0.31580000
    18  C          0.33050000       0.69500000       0.18420000
    19  C          0.33050000       0.80500000       0.68420000
    20  C          0.66950000       0.30500000       0.81580000
    21  C          0.96420000       0.35100000       0.39380000
    22  C          0.03580000       0.85100000       0.10620000
    23  C          0.03580000       0.64900000       0.60620000
    24  C          0.96420000       0.14900000       0.89380000
    25  C          0.70070000       0.21160000       0.12380000
    26  C          0.29930000       0.71160000       0.37620000
    27  C          0.29930000       0.78840000       0.87620000
    28  C          0.70070000       0.28840000       0.62380000
    29  C          0.81140000       0.26520000       0.14880000
    30  C          0.18860000       0.76520000       0.35120000
    31  C          0.18860000       0.73480000       0.85120000
    32  C          0.81140000       0.23480000       0.64880000
    33  C          0.96880000       0.34790000       0.08950000
    34  C          0.03120000       0.84790000       0.41050000
    35  C          0.03120000       0.65210000       0.91050000
    36  C          0.96880000       0.15210000       0.58950000
    37  C          0.03950000       0.38070000       0.00350000
    38  C          0.96050000       0.88070000       0.49650000
    39  C          0.96050000       0.61930000      -0.00350000
    40  C          0.03950000       0.11930000       0.50350000
    41  C          0.14240000       0.43180000       0.02020000
    42  C          0.85760000       0.93180000       0.47980000
    43  C          0.85760000       0.56820000       0.97980000
    44  C          0.14240000       0.06820000       0.52020000
    45  C          0.16850000       0.45360000       0.12770000
    46  C          0.83150000       0.95360000       0.37230000
    47  C          0.83150000       0.54640000       0.87230000
    48  C          0.16850000       0.04640000       0.62770000
    49  C          0.09730000       0.42230000       0.21270000
    50  C          0.90270000       0.92230000       0.28730000
    51  C          0.90270000       0.57770000       0.78730000
    52  C          0.09730000       0.07770000       0.71270000
    53  C         -0.00040000       0.36860000       0.19540000
    54  C          0.00040000       0.86860000       0.30460000
    55  C          0.00040000       0.63140000       0.80460000
    56  C         -0.00040000       0.13140000       0.69540000
    57  H          0.79600000       0.24700000       0.39100000
    58  H          0.20400000       0.74700000       0.10900000
    59  H          0.20400000       0.75300000       0.60900000
    60  H          0.79600000       0.25300000       0.89100000
    61  H          0.19000000       0.51300000       0.92700000
    62  H          0.81000000       0.01300000       0.57300000
    63  H          0.81000000       0.48700000       0.07300000
    64  H          0.19000000       0.98700000       0.42700000
    65  H          0.35400000       0.46100000       0.93000000
    66  H          0.64600000       0.96100000       0.57000000
    67  H          0.64600000       0.53900000       0.07000000
    68  H          0.35400000       0.03900000       0.43000000
    69  H          0.18700000       0.44900000       0.86900000
    70  H          0.81300000       0.94900000       0.63100000
    71  H          0.81300000       0.55100000       0.13100000
    72  H          0.18700000       0.05100000       0.36900000
    73  H          0.24500000       0.51300000       0.24600000
    74  H          0.75500000       0.01300000       0.25400000
    75  H          0.75500000       0.48700000       0.75400000
    76  H          0.24500000       0.98700000       0.74600000
    77  H          0.38100000       0.51100000       0.12700000
    78  H          0.61900000       0.01100000       0.37300000
    79  H          0.61900000       0.48900000       0.87300000
    80  H          0.38100000       0.98900000       0.62700000
    81  H          0.22100000       0.53400000       0.13400000
    82  H          0.77900000       0.03400000       0.36600000
    83  H          0.77900000       0.46600000       0.86600000
    84  H          0.22100000       0.96600000       0.63400000
    85  H          0.86700000       0.35200000       0.41800000
    86  H          0.13300000       0.85200000       0.08200000
    87  H          0.13300000       0.64800000       0.58200000
    88  H          0.86700000       0.14800000       0.91800000
    89  H          0.97500000       0.31200000       0.43800000
    90  H          0.02500000       0.81200000       0.06200000
    91  H          0.02500000       0.68800000       0.56200000
    92  H          0.97500000       0.18800000       0.93800000
    93  H          0.07500000       0.36700000       0.39400000
    94  H          0.92500000       0.86700000       0.10600000
    95  H          0.92500000       0.63300000       0.60600000
    96  H          0.07500000       0.13300000       0.89400000
    97  H          0.55800000       0.14500000       0.19600000
    98  H          0.44200000       0.64500000       0.30400000
    99  H          0.44200000       0.85500000       0.80400000
   100  H          0.55800000       0.35500000       0.69600000
   101  H          0.01500000       0.37000000       0.93300000
   102  H         -0.01500000       0.87000000       0.56700000
   103  H         -0.01500000       0.63000000       0.06700000
   104  H          0.01500000       0.13000000       0.43300000
   105  H          0.10700000       0.43700000       0.28700000
   106  H          0.89300000       0.93700000       0.21300000
   107  H          0.89300000       0.56300000       0.71300000
   108  H          0.10700000       0.06300000       0.78700000
   109  N          0.77130000       0.24570000       0.33610000
   110  N          0.22870000       0.74570000       0.16390000
   111  N          0.22870000       0.75430000       0.66390000
   112  N          0.77130000       0.25430000       0.83610000
   113  N          0.93060000       0.33310000       0.28000000
   114  N          0.06940000       0.83310000       0.22000000
   115  N          0.06940000       0.66690000       0.72000000
   116  N          0.93060000       0.16690000       0.78000000
   117  N          0.63340000       0.18190000       0.21070000
   118  N          0.36660000       0.68190000       0.28930000
   119  N          0.36660000       0.81810000       0.78930000
   120  N          0.63340000       0.31810000       0.71070000
   121  N          0.87600000       0.29560000       0.06780000
   122  N          0.12400000       0.79560000       0.43220000
   123  N          0.12400000       0.70440000       0.93220000
   124  N          0.87600000       0.20440000       0.56780000
   125  O          0.61050000       0.16440000       0.38880000
   126  O          0.38950000       0.66440000       0.11120000
   127  O          0.38950000       0.83560000       0.61120000
   128  O          0.61050000       0.33560000       0.88880000
   129  O          0.66810000       0.19510000       0.03190000
   130  O          0.33190000       0.69510000       0.46810000
   131  O          0.33190000       0.80490000       0.96810000
   132  O          0.66810000       0.30490000       0.53190000
   133  C          0.29340000       0.26640000       0.27290000
   134  C          0.70660000       0.76640000       0.22710000
   135  C          0.70660000       0.73360000       0.72710000
   136  C          0.29340000       0.23360000       0.77290000
   137  C          0.38490000       0.31150000       0.32630000
   138  C          0.61510000       0.81150000       0.17370000
   139  C          0.61510000       0.68850000       0.67370000
   140  C          0.38490000       0.18850000       0.82630000
   141  C          0.48200000       0.35340000       0.26690000
   142  C          0.51800000       0.85340000       0.23310000
   143  C          0.51800000       0.64660000       0.73310000
   144  C          0.48200000       0.14660000       0.76690000
   145  C          0.48460000       0.34920000       0.15550000
   146  C          0.51540000       0.84920000       0.34450000
   147  C          0.51540000       0.65080000       0.84450000
   148  C          0.48460000       0.15080000       0.65550000
   149  C          0.39020000       0.30470000       0.10340000
   150  C          0.60980000       0.80470000       0.39660000
   151  C          0.60980000       0.69530000       0.89660000
   152  C          0.39020000       0.19530000       0.60340000
   153  C          0.29560000       0.26340000       0.16170000
   154  C          0.70440000       0.76340000       0.33830000
   155  C          0.70440000       0.73660000       0.83830000
   156  C          0.29560000       0.23660000       0.66170000
   157  H          0.38800000       0.29900000       0.40700000
   158  H          0.61200000       0.79900000       0.09300000
   159  H          0.61200000       0.70100000       0.59300000
   160  H          0.38800000       0.20100000       0.90700000
   161  H          0.56800000       0.39800000       0.30300000
   162  H          0.43200000       0.89800000       0.19700000
   163  H          0.43200000       0.60200000       0.69700000
   164  H          0.56800000       0.10200000       0.80300000
   165  H          0.36300000       0.30100000       0.03200000
   166  H          0.63700000       0.80100000       0.46800000
   167  H          0.63700000       0.69900000       0.96800000
   168  H          0.36300000       0.19900000       0.53200000
   169  H          0.27300000       0.24000000       0.11500000
   170  H          0.72700000       0.74000000       0.38500000
   171  H          0.72700000       0.76000000       0.88500000
   172  H          0.27300000       0.26000000       0.61500000
   173  O          0.19730000       0.22580000       0.33370000
   174  O          0.80270000       0.72580000       0.16630000
   175  O          0.80270000       0.77420000       0.66630000
   176  O          0.19730000       0.27420000       0.83370000
   177  O          0.58320000       0.39100000       0.09920000
   178  O          0.41680000       0.89100000       0.40080000
   179  O          0.41680000       0.60900000       0.90080000
   180  O          0.58320000       0.10900000       0.59920000
   181  C          0.45300000       0.04270000       0.07840000
   182  C          0.54700000       0.54270000       0.42160000
   183  C          0.54700000       0.95730000       0.92160000
   184  C          0.45300000       0.45730000       0.57840000
   185  C          0.61230000       0.03430000       0.05730000
   186  C          0.38770000       0.53430000       0.44270000
   187  C          0.38770000       0.96570000       0.94270000
   188  C          0.61230000       0.46570000       0.55730000
   189  C          0.33790000       0.00790000       0.02380000
   190  C          0.66210000       0.50790000       0.47620000
   191  C          0.66210000       0.99210000       0.97620000
   192  C          0.33790000       0.49210000       0.52380000
   193  H          0.73500000       0.06100000       0.08900000
   194  H          0.26500000       0.56100000       0.41100000
   195  H          0.26500000       0.93900000       0.91100000
   196  H          0.73500000       0.43900000       0.58900000
   197  H          0.24100000       0.01400000       0.03300000
   198  H          0.75900000       0.51400000       0.46700000
   199  H          0.75900000       0.98600000       0.96700000
   200  H          0.24100000       0.48600000       0.53300000
   201  O          0.41050000       0.08610000       0.15920000
   202  O          0.58950000       0.58610000       0.34080000
   203  O          0.58950000       0.91390000       0.84080000
   204  O          0.41050000       0.41390000       0.65920000
