data_LUNMEM
_symmetry_space_group_name_H-M    'P1'
_symmetry_Int_Tables_number       1
loop_
_symmetry_equiv_pos_site_id
_symmetry_equiv_pos_as_xyz
1 x,y,z
_cell_length_a                   22.4193
_cell_length_b                   5.14086
_cell_length_c                   20.8673
_cell_angle_alpha                90.0
_cell_angle_beta                 97.7172
_cell_angle_gamma                90.0
loop_
_atom_site_label
_atom_site_type_symbol
_atom_site_fract_x
_atom_site_fract_y
_atom_site_fract_z
     1  N          0.10848500       0.92002000       0.18403600
     2  N          0.60848500       0.42002000       0.18403600
     3  N          0.89151500       0.92002000       0.31596400
     4  N          0.39151500       0.42002000       0.31596400
     5  N          0.89151500       0.07998000       0.81596400
     6  N          0.39151500       0.57998000       0.81596400
     7  N          0.10848500       0.07998000       0.68403600
     8  N          0.60848500       0.57998000       0.68403600
     9  C          0.06360700       0.77933000       0.20226800
    10  C          0.56360700       0.27933000       0.20226800
    11  C          0.93639300       0.77933000       0.29773200
    12  C          0.43639300       0.27933000       0.29773200
    13  C          0.93639300       0.22067000       0.79773200
    14  C          0.43639300       0.72067000       0.79773200
    15  C          0.06360700       0.22067000       0.70226800
    16  C          0.56360700       0.72067000       0.70226800
    17  H          0.04980000       0.83260000       0.24260000
    18  H          0.54980000       0.33260000       0.24260000
    19  H          0.95020000       0.83260000       0.25740000
    20  H          0.45020000       0.33260000       0.25740000
    21  H          0.95020000       0.16740000       0.75740000
    22  H          0.45020000       0.66740000       0.75740000
    23  H          0.04980000       0.16740000       0.74260000
    24  H          0.54980000       0.66740000       0.74260000
    25  C          0.03547700       0.57993000       0.16531800
    26  C          0.53547700       0.07993000       0.16531800
    27  C          0.96452300       0.57993000       0.33468200
    28  C          0.46452300       0.07993000       0.33468200
    29  C          0.96452300       0.42007000       0.83468200
    30  C          0.46452300       0.92007000       0.83468200
    31  C          0.03547700       0.42007000       0.66531800
    32  C          0.53547700       0.92007000       0.66531800
    33  H          0.00510000       0.47480000       0.18280000
    34  H          0.50510000      -0.02520000       0.18280000
    35  H         -0.00510000       0.47480000       0.31720000
    36  H          0.49490000      -0.02520000       0.31720000
    37  H         -0.00510000       0.52520000       0.81720000
    38  H          0.49490000       0.02520000       0.81720000
    39  H          0.00510000       0.52520000       0.68280000
    40  H          0.50510000       0.02520000       0.68280000
    41  C          0.05459600       0.52363000       0.10618700
    42  C          0.55459600       0.02363000       0.10618700
    43  C          0.94540400       0.52363000       0.39381300
    44  C          0.44540400       0.02363000       0.39381300
    45  C          0.94540400       0.47637000       0.89381300
    46  C          0.44540400      -0.02363000       0.89381300
    47  C          0.05459600       0.47637000       0.60618700
    48  C          0.55459600      -0.02363000       0.60618700
    49  C          0.10122700       0.66943000       0.08713700
    50  C          0.60122700       0.16943000       0.08713700
    51  C          0.89877300       0.66943000       0.41286300
    52  C          0.39877300       0.16943000       0.41286300
    53  C          0.89877300       0.33057000       0.91286300
    54  C          0.39877300       0.83057000       0.91286300
    55  C          0.10122700       0.33057000       0.58713700
    56  C          0.60122700       0.83057000       0.58713700
    57  H          0.11270000       0.63710000       0.04500000
    58  H          0.61270000       0.13710000       0.04500000
    59  H          0.88730000       0.63710000       0.45500000
    60  H          0.38730000       0.13710000       0.45500000
    61  H          0.88730000       0.36290000       0.95500000
    62  H          0.38730000       0.86290000       0.95500000
    63  H          0.11270000       0.36290000       0.54500000
    64  H          0.61270000       0.86290000       0.54500000
    65  C          0.12694700       0.86483000       0.12717700
    66  C          0.62694700       0.36483000       0.12717700
    67  C          0.87305300       0.86483000       0.37282300
    68  C          0.37305300       0.36483000       0.37282300
    69  C          0.87305300       0.13517000       0.87282300
    70  C          0.37305300       0.63517000       0.87282300
    71  C          0.12694700       0.13517000       0.62717700
    72  C          0.62694700       0.63517000       0.62717700
    73  H          0.16130000       0.97280000       0.11630000
    74  H          0.66130000       0.47280000       0.11630000
    75  H          0.83870000       0.97280000       0.38370000
    76  H          0.33870000       0.47280000       0.38370000
    77  H          0.83870000       0.02720000       0.88370000
    78  H          0.33870000       0.52720000       0.88370000
    79  H          0.16130000       0.02720000       0.61630000
    80  H          0.66130000       0.52720000       0.61630000
    81  O          0.05283500       0.25502000       0.01310500
    82  O          0.55283500       0.75502000       0.01310500
    83  O          0.94716500       0.25502000       0.48689500
    84  O          0.44716500       0.75502000       0.48689500
    85  O          0.94716500       0.74498000       0.98689500
    86  O          0.44716500       0.24498000       0.98689500
    87  O          0.05283500       0.74498000       0.51310500
    88  O          0.55283500       0.24498000       0.51310500
    89  N          0.98144500       0.17802000       0.07675600
    90  N          0.48144500       0.67802000       0.07675600
    91  N          0.01855500       0.17802000       0.42324400
    92  N          0.51855500       0.67802000       0.42324400
    93  N          0.01855500       0.82198000       0.92324400
    94  N          0.51855500       0.32198000       0.92324400
    95  N          0.98144500       0.82198000       0.57675600
    96  N          0.48144500       0.32198000       0.57675600
    97  H          0.96180000       0.22620000       0.10900000
    98  H          0.46180000       0.72620000       0.10900000
    99  H          0.03820000       0.22620000       0.39100000
   100  H          0.53820000       0.72620000       0.39100000
   101  H          0.03820000       0.77380000       0.89100000
   102  H          0.53820000       0.27380000       0.89100000
   103  H          0.96180000       0.77380000       0.60900000
   104  H          0.46180000       0.27380000       0.60900000
   105  H          0.97040000       0.04310000       0.05300000
   106  H          0.47040000       0.54310000       0.05300000
   107  H          0.02960000       0.04310000       0.44700000
   108  H          0.52960000       0.54310000       0.44700000
   109  H          0.02960000       0.95690000       0.94700000
   110  H          0.52960000       0.45690000       0.94700000
   111  H          0.97040000       0.95690000       0.55300000
   112  H          0.47040000       0.45690000       0.55300000
   113  C          0.02870600       0.30743000       0.06207700
   114  C          0.52870600       0.80743000       0.06207700
   115  C          0.97129400       0.30743000       0.43792300
   116  C          0.47129400       0.80743000       0.43792300
   117  C          0.97129400       0.69257000       0.93792300
   118  C          0.47129400       0.19257000       0.93792300
   119  C          0.02870600       0.69257000       0.56207700
   120  C          0.52870600       0.19257000       0.56207700
   121  C          0.16996600       0.57573000       0.34421700
   122  C          0.66996600       0.07573000       0.34421700
   123  C          0.83003400       0.57573000       0.15578300
   124  C          0.33003400       0.07573000       0.15578300
   125  C          0.83003400       0.42427000       0.65578300
   126  C          0.33003400       0.92427000       0.65578300
   127  C          0.16996600       0.42427000       0.84421700
   128  C          0.66996600       0.92427000       0.84421700
   129  C          0.15020700       0.65453000       0.40161800
   130  C          0.65020700       0.15453000       0.40161800
   131  C          0.84979300       0.65453000       0.09838200
   132  C          0.34979300       0.15453000       0.09838200
   133  C          0.84979300       0.34547000       0.59838200
   134  C          0.34979300       0.84547000       0.59838200
   135  C          0.15020700       0.34547000       0.90161800
   136  C          0.65020700       0.84547000       0.90161800
   137  H          0.11650000       0.57460000       0.41660000
   138  H          0.61650000       0.07460000       0.41660000
   139  H          0.88350000       0.57460000       0.08340000
   140  H          0.38350000       0.07460000       0.08340000
   141  H          0.88350000       0.42540000       0.58340000
   142  H          0.38350000       0.92540000       0.58340000
   143  H          0.11650000       0.42540000       0.91660000
   144  H          0.61650000       0.92540000       0.91660000
   145  C          0.18007700       0.85473000       0.43759800
   146  C          0.68007700       0.35473000       0.43759800
   147  C          0.81992300       0.85473000       0.06240200
   148  C          0.31992300       0.35473000       0.06240200
   149  C          0.81992300       0.14527000       0.56240200
   150  C          0.31992300       0.64527000       0.56240200
   151  C          0.18007700       0.14527000       0.93759800
   152  C          0.68007700       0.64527000       0.93759800
   153  O          0.16237500       0.94282000       0.49391500
   154  O          0.66237500       0.44282000       0.49391500
   155  O          0.83762500       0.94282000       0.00608500
   156  O          0.33762500       0.44282000       0.00608500
   157  O          0.83762500       0.05718000       0.50608500
   158  O          0.33762500       0.55718000       0.50608500
   159  O          0.16237500       0.05718000      -0.00608500
   160  O          0.66237500       0.55718000      -0.00608500
   161  H          0.13000000       0.85250000       0.50210000
   162  H          0.63000000       0.35250000       0.50210000
   163  H          0.87000000       0.85250000      -0.00210000
   164  H          0.37000000       0.35250000      -0.00210000
   165  H          0.87000000       0.14750000       0.49790000
   166  H          0.37000000       0.64750000       0.49790000
   167  H          0.13000000       0.14750000       0.00210000
   168  H          0.63000000       0.64750000       0.00210000
   169  C          0.22932700      -0.02567000       0.41635800
   170  C          0.72932700       0.47433000       0.41635800
   171  C          0.77067300      -0.02567000       0.08364200
   172  C          0.27067300       0.47433000       0.08364200
   173  C          0.77067300       0.02567000       0.58364200
   174  C          0.27067300       0.52567000       0.58364200
   175  C          0.22932700       0.02567000       0.91635800
   176  C          0.72932700       0.52567000       0.91635800
   177  H          0.25000000       0.10840000       0.44140000
   178  H          0.75000000       0.60840000       0.44140000
   179  H          0.75000000       0.10840000       0.05860000
   180  H          0.25000000       0.60840000       0.05860000
   181  H          0.75000000       0.89160000       0.55860000
   182  H          0.25000000       0.39160000       0.55860000
   183  H          0.25000000       0.89160000       0.94140000
   184  H          0.75000000       0.39160000       0.94140000
   185  C          0.24855700       0.89473000       0.35933800
   186  C          0.74855700       0.39473000       0.35933800
   187  C          0.75144300       0.89473000       0.14066200
   188  C          0.25144300       0.39473000       0.14066200
   189  C          0.75144300       0.10527000       0.64066200
   190  C          0.25144300       0.60527000       0.64066200
   191  C          0.24855700       0.10527000       0.85933800
   192  C          0.74855700       0.60527000       0.85933800
   193  H          0.28320000      -0.01830000       0.34440000
   194  H          0.78320000       0.48170000       0.34440000
   195  H          0.71680000      -0.01830000       0.15560000
   196  H          0.21680000       0.48170000       0.15560000
   197  H          0.71680000       0.01830000       0.65560000
   198  H          0.21680000       0.51830000       0.65560000
   199  H          0.28320000       0.01830000       0.84440000
   200  H          0.78320000       0.51830000       0.84440000
   201  C          0.21930700       0.69503000       0.32295800
   202  C          0.71930700       0.19503000       0.32295800
   203  C          0.78069300       0.69503000       0.17704200
   204  C          0.28069300       0.19503000       0.17704200
   205  C          0.78069300       0.30497000       0.67704200
   206  C          0.28069300       0.80497000       0.67704200
   207  C          0.21930700       0.30497000       0.82295800
   208  C          0.71930700       0.80497000       0.82295800
   209  H          0.23130000       0.64710000       0.28350000
   210  H          0.73130000       0.14710000       0.28350000
   211  H          0.76870000       0.64710000       0.21650000
   212  H          0.26870000       0.14710000       0.21650000
   213  H          0.76870000       0.35290000       0.71650000
   214  H          0.26870000       0.85290000       0.71650000
   215  H          0.23130000       0.35290000       0.78350000
   216  H          0.73130000       0.85290000       0.78350000
   217  O          0.16188500       0.29762000       0.25436500
   218  O          0.66188500       0.79762000       0.25436500
   219  O          0.83811500       0.29762000       0.24563500
   220  O          0.33811500       0.79762000       0.24563500
   221  O          0.83811500       0.70238000       0.74563500
   222  O          0.33811500       0.20238000       0.74563500
   223  O          0.16188500       0.70238000       0.75436500
   224  O          0.66188500       0.20238000       0.75436500
   225  H          0.13950000       0.17270000       0.23030000
   226  H          0.63950000       0.67270000       0.23030000
   227  H          0.86050000       0.17270000       0.26970000
   228  H          0.36050000       0.67270000       0.26970000
   229  H          0.86050000       0.82730000       0.76970000
   230  H          0.36050000       0.32730000       0.76970000
   231  H          0.13950000       0.82730000       0.73030000
   232  H          0.63950000       0.32730000       0.73030000
   233  C          0.13708700       0.36273000       0.30536700
   234  C          0.63708700       0.86273000       0.30536700
   235  C          0.86291300       0.36273000       0.19463300
   236  C          0.36291300       0.86273000       0.19463300
   237  C          0.86291300       0.63727000       0.69463300
   238  C          0.36291300       0.13727000       0.69463300
   239  C          0.13708700       0.63727000       0.80536700
   240  C          0.63708700       0.13727000       0.80536700
   241  O          0.09105500       0.26122000       0.31939500
   242  O          0.59105500       0.76122000       0.31939500
   243  O          0.90894500       0.26122000       0.18060500
   244  O          0.40894500       0.76122000       0.18060500
   245  O          0.90894500       0.73878000       0.68060500
   246  O          0.40894500       0.23878000       0.68060500
   247  O          0.09105500       0.73878000       0.81939500
   248  O          0.59105500       0.23878000       0.81939500
