data_LUNNAJ
_symmetry_space_group_name_H-M    'P1'
_symmetry_Int_Tables_number       1
loop_
_symmetry_equiv_pos_site_id
_symmetry_equiv_pos_as_xyz
1 x,y,z
_cell_length_a                   21.0313
_cell_length_b                   5.11797
_cell_length_c                   19.8453
_cell_angle_alpha                90.0
_cell_angle_beta                 117.3442
_cell_angle_gamma                90.0
loop_
_atom_site_label
_atom_site_type_symbol
_atom_site_fract_x
_atom_site_fract_y
_atom_site_fract_z
     1  N          0.97619400       0.33882000       0.08933600
     2  N          0.47619400       0.83882000       0.08933600
     3  N          0.02380600       0.33882000       0.41066400
     4  N          0.52380600       0.83882000       0.41066400
     5  N          0.02380600       0.66118000       0.91066400
     6  N          0.52380600       0.16118000       0.91066400
     7  N          0.97619400       0.66118000       0.58933600
     8  N          0.47619400       0.16118000       0.58933600
     9  C          0.97472200       0.47803000       0.14571800
    10  C          0.47472200      -0.02197000       0.14571800
    11  C          0.02527800       0.47803000       0.35428200
    12  C          0.52527800      -0.02197000       0.35428200
    13  C          0.02527800       0.52197000       0.85428200
    14  C          0.52527800       0.02197000       0.85428200
    15  C          0.97472200       0.52197000       0.64571800
    16  C          0.47472200       0.02197000       0.64571800
    17  H          0.01020000       0.42550000       0.19680000
    18  H          0.51020000       0.92550000       0.19680000
    19  H          0.98980000       0.42550000       0.30320000
    20  H          0.48980000       0.92550000       0.30320000
    21  H          0.98980000       0.57450000       0.80320000
    22  H          0.48980000       0.07450000       0.80320000
    23  H          0.01020000       0.57450000       0.69680000
    24  H          0.51020000       0.07450000       0.69680000
    25  C          0.92679200       0.67873000       0.13279800
    26  C          0.42679200       0.17873000       0.13279800
    27  C          0.07320800       0.67873000       0.36720200
    28  C          0.57320800       0.17873000       0.36720200
    29  C          0.07320800       0.32127000       0.86720200
    30  C          0.57320800       0.82127000       0.86720200
    31  C          0.92679200       0.32127000       0.63279800
    32  C          0.42679200       0.82127000       0.63279800
    33  H          0.92580000       0.77270000       0.16990000
    34  H          0.42580000       0.27270000       0.16990000
    35  H          0.07420000       0.77270000       0.33010000
    36  H          0.57420000       0.27270000       0.33010000
    37  H          0.07420000       0.22730000       0.83010000
    38  H          0.57420000       0.72730000       0.83010000
    39  H          0.92580000       0.22730000       0.66990000
    40  H          0.42580000       0.72730000       0.66990000
    41  C          0.87793300       0.73813000       0.05838700
    42  C          0.37793300       0.23813000       0.05838700
    43  C          0.12206700       0.73813000       0.44161300
    44  C          0.62206700       0.23813000       0.44161300
    45  C          0.12206700       0.26187000       0.94161300
    46  C          0.62206700       0.76187000       0.94161300
    47  C          0.87793300       0.26187000       0.55838700
    48  C          0.37793300       0.76187000       0.55838700
    49  C          0.87953200       0.59253000       0.00011800
    50  C          0.37953200       0.09253000       0.00011800
    51  C          0.12046800       0.59253000       0.49988200
    52  C          0.62046800       0.09253000       0.49988200
    53  C          0.12046800       0.40747000      -0.00011800
    54  C          0.62046800       0.90747000      -0.00011800
    55  C          0.87953200       0.40747000       0.50011800
    56  C          0.37953200       0.90747000       0.50011800
    57  H          0.84720000       0.62690000       0.94720000
    58  H          0.34720000       0.12690000       0.94720000
    59  H          0.15280000       0.62690000       0.55280000
    60  H          0.65280000       0.12690000       0.55280000
    61  H          0.15280000       0.37310000       0.05280000
    62  H          0.65280000       0.87310000       0.05280000
    63  H          0.84720000       0.37310000       0.44720000
    64  H          0.34720000       0.87310000       0.44720000
    65  C          0.92916200       0.39453000       0.01743800
    66  C          0.42916200       0.89453000       0.01743800
    67  C          0.07083800       0.39453000       0.48256200
    68  C          0.57083800       0.89453000       0.48256200
    69  C          0.07083800       0.60547000       0.98256200
    70  C          0.57083800       0.10547000       0.98256200
    71  C          0.92916200       0.60547000       0.51743800
    72  C          0.42916200       0.10547000       0.51743800
    73  H          0.93020000       0.28790000       0.98060000
    74  H          0.43020000       0.78790000       0.98060000
    75  H          0.06980000       0.28790000       0.51940000
    76  H          0.56980000       0.78790000       0.51940000
    77  H          0.06980000       0.71210000       0.01940000
    78  H          0.56980000       0.21210000       0.01940000
    79  H          0.93020000       0.71210000       0.48060000
    80  H          0.43020000       0.21210000       0.48060000
    81  O          0.78678400       0.00302000       0.96789400
    82  O          0.28678400       0.50302000       0.96789400
    83  O          0.21321600       0.00302000       0.53210600
    84  O          0.71321600       0.50302000       0.53210600
    85  O          0.21321600      -0.00302000       0.03210600
    86  O          0.71321600       0.49698000       0.03210600
    87  O          0.78678400      -0.00302000       0.46789400
    88  O          0.28678400       0.49698000       0.46789400
    89  N          0.81928300       0.09222000       0.09062600
    90  N          0.31928300       0.59222000       0.09062600
    91  N          0.18071700       0.09222000       0.40937400
    92  N          0.68071700       0.59222000       0.40937400
    93  N          0.18071700       0.90778000       0.90937400
    94  N          0.68071700       0.40778000       0.90937400
    95  N          0.81928300       0.90778000       0.59062600
    96  N          0.31928300       0.40778000       0.59062600
    97  H          0.84350000       0.05100000       0.13740000
    98  H          0.34350000       0.55100000       0.13740000
    99  H          0.15650000       0.05100000       0.36260000
   100  H          0.65650000       0.55100000       0.36260000
   101  H          0.15650000       0.94900000       0.86260000
   102  H          0.65650000       0.44900000       0.86260000
   103  H          0.84350000       0.94900000       0.63740000
   104  H          0.34350000       0.44900000       0.63740000
   105  H          0.78960000       0.21600000       0.07800000
   106  H          0.28960000       0.71600000       0.07800000
   107  H          0.21040000       0.21600000       0.42200000
   108  H          0.71040000       0.71600000       0.42200000
   109  H          0.21040000       0.78400000       0.92200000
   110  H          0.71040000       0.28400000       0.92200000
   111  H          0.78960000       0.78400000       0.57800000
   112  H          0.28960000       0.28400000       0.57800000
   113  C          0.82361200       0.95663000       0.03617800
   114  C          0.32361200       0.45663000       0.03617800
   115  C          0.17638800       0.95663000       0.46382200
   116  C          0.67638800       0.45663000       0.46382200
   117  C          0.17638800       0.04337000       0.96382200
   118  C          0.67638800       0.54337000       0.96382200
   119  C          0.82361200       0.04337000       0.53617800
   120  C          0.32361200       0.54337000       0.53617800
   121  Cl         0.21339200       0.64727800       0.29868200
   122  Cl         0.71339200       0.14727800       0.29868200
   123  Cl         0.78660800       0.64727800       0.20131800
   124  Cl         0.28660800       0.14727800       0.20131800
   125  Cl         0.78660800       0.35272200       0.70131800
   126  Cl         0.28660800       0.85272200       0.70131800
   127  Cl         0.21339200       0.35272200       0.79868200
   128  Cl         0.71339200       0.85272200       0.79868200
   129  C          0.15665800       0.70543000       0.20121800
   130  C          0.65665800       0.20543000       0.20121800
   131  C          0.84334200       0.70543000       0.29878200
   132  C          0.34334200       0.20543000       0.29878200
   133  C          0.84334200       0.29457000       0.79878200
   134  C          0.34334200       0.79457000       0.79878200
   135  C          0.15665800       0.29457000       0.70121800
   136  C          0.65665800       0.79457000       0.70121800
   137  H          0.18720000       0.74330000       0.18000000
   138  H          0.68720000       0.24330000       0.18000000
   139  H          0.81280000       0.74330000       0.32000000
   140  H          0.31280000       0.24330000       0.32000000
   141  H          0.81280000       0.25670000       0.82000000
   142  H          0.31280000       0.75670000       0.82000000
   143  H          0.18720000       0.25670000       0.68000000
   144  H          0.68720000       0.75670000       0.68000000
   145  H          0.13050000       0.55220000       0.18100000
   146  H          0.63050000       0.05220000       0.18100000
   147  H          0.86950000       0.55220000       0.31900000
   148  H          0.36950000       0.05220000       0.31900000
   149  H          0.86950000       0.44780000       0.81900000
   150  H          0.36950000       0.94780000       0.81900000
   151  H          0.13050000       0.44780000       0.68100000
   152  H          0.63050000       0.94780000       0.68100000
   153  O          0.06880600      -0.01718000       0.11619500
   154  O          0.56880600       0.48282000       0.11619500
   155  O          0.93119400      -0.01718000       0.38380500
   156  O          0.43119400       0.48282000       0.38380500
   157  O          0.93119400       0.01718000       0.88380500
   158  O          0.43119400       0.51718000       0.88380500
   159  O          0.06880600       0.01718000       0.61619500
   160  O          0.56880600       0.51718000       0.61619500
   161  H          0.03360000       0.13220000       0.10930000
   162  H          0.53360000       0.63220000       0.10930000
   163  H          0.96640000       0.13220000       0.39070000
   164  H          0.46640000       0.63220000       0.39070000
   165  H          0.96640000       0.86780000       0.89070000
   166  H          0.46640000       0.36780000       0.89070000
   167  H          0.03360000       0.86780000       0.60930000
   168  H          0.53360000       0.36780000       0.60930000
   169  C          0.10468800       0.92863000       0.18757800
   170  C          0.60468800       0.42863000       0.18757800
   171  C          0.89531200       0.92863000       0.31242200
   172  C          0.39531200       0.42863000       0.31242200
   173  C          0.89531200       0.07137000       0.81242200
   174  C          0.39531200       0.57137000       0.81242200
   175  C          0.10468800       0.07137000       0.68757800
   176  C          0.60468800       0.57137000       0.68757800
   177  O          0.09750600       0.03892000       0.23816500
   178  O          0.59750600       0.53892000       0.23816500
   179  O          0.90249400       0.03892000       0.26183500
   180  O          0.40249400       0.53892000       0.26183500
   181  O          0.90249400       0.96108000       0.76183500
   182  O          0.40249400       0.46108000       0.76183500
   183  O          0.09750600       0.96108000       0.73816500
   184  O          0.59750600       0.46108000       0.73816500
