data_LUNYOI
_symmetry_space_group_name_H-M    'P1'
_symmetry_Int_Tables_number       1
loop_
_symmetry_equiv_pos_site_id
_symmetry_equiv_pos_as_xyz
1 x,y,z
_cell_length_a                   9.85447
_cell_length_b                   5.71274
_cell_length_c                   13.533813
_cell_angle_alpha                90.0
_cell_angle_beta                 109.7363
_cell_angle_gamma                90.0
loop_
_atom_site_label
_atom_site_type_symbol
_atom_site_fract_x
_atom_site_fract_y
_atom_site_fract_z
     1  O          0.74057820       0.05833000       0.00876900
     2  O          0.75942180       0.55833000       0.49123100
     3  O          0.25942180       0.94167000      -0.00876900
     4  O          0.24057820       0.44167000       0.50876900
     5  H          0.79970000       0.93650000       0.00720000
     6  H          0.70030000       0.43650000       0.49280000
     7  H          0.20030000       0.06350000      -0.00720000
     8  H          0.29970000       0.56350000       0.50720000
     9  O          0.68705850       0.03112000       0.83662100
    10  O          0.81294150       0.53112000       0.66337900
    11  O          0.31294150       0.96888000       0.16337900
    12  O          0.18705850       0.46888000       0.33662100
    13  C          0.66793820       0.12093000       0.91109880
    14  C          0.83206180       0.62093000       0.58890120
    15  C          0.33206180       0.87907000       0.08890120
    16  C          0.16793820       0.37907000       0.41109880
    17  C          0.56228810       0.31283000       0.90477880
    18  C          0.93771190       0.81283000       0.59522120
    19  C          0.43771190       0.68717000       0.09522120
    20  C          0.06228810       0.18717000       0.40477880
    21  H          0.61350000       0.44390000       0.94980000
    22  H          0.88650000       0.94390000       0.55020000
    23  H          0.38650000       0.55610000       0.05020000
    24  H          0.11350000       0.05610000       0.44980000
    25  H          0.48870000       0.25440000       0.93360000
    26  H          0.01130000       0.75440000       0.56640000
    27  H          0.51130000       0.74560000       0.06640000
    28  H         -0.01130000       0.24560000       0.43360000
    29  C          0.48672810       0.40513000       0.79536870
    30  C          0.01327190       0.90513000       0.70463130
    31  C          0.51327190       0.59487000       0.20463130
    32  C         -0.01327190       0.09487000       0.29536870
    33  H          0.43560000       0.27470000       0.74970000
    34  H          0.06440000       0.77470000       0.75030000
    35  H          0.56440000       0.72530000       0.25030000
    36  H          0.93560000       0.22530000       0.24970000
    37  H          0.55950000       0.46690000       0.76660000
    38  H          0.94050000       0.96690000       0.73340000
    39  H          0.44050000       0.53310000       0.23340000
    40  H          0.05950000       0.03310000       0.26660000
    41  C          0.37918000       0.59733000       0.79317860
    42  C          0.12082000       0.09733000       0.70682140
    43  C          0.62082000       0.40267000       0.20682140
    44  C          0.87918000       0.90267000       0.29317860
    45  H          0.32770000       0.64320000       0.72030000
    46  H          0.17230000       0.14320000       0.77970000
    47  H          0.67230000       0.35680000       0.27970000
    48  H          0.82770000       0.85680000       0.22030000
    49  H          0.43050000       0.73310000       0.83270000
    50  H          0.06950000       0.23310000       0.66730000
    51  H          0.56950000       0.26690000       0.16730000
    52  H          0.93050000       0.76690000       0.33270000
    53  H          0.31000000       0.53970000       0.82510000
    54  H          0.19000000       0.03970000       0.67490000
    55  H          0.69000000       0.46030000       0.17490000
    56  H          0.81000000       0.96030000       0.32510000
    57  N          0.91835850       0.69168000       0.00979100
    58  N          0.58164150       0.19168000       0.49020900
    59  N          0.08164150       0.30832000      -0.00979100
    60  N          0.41835850       0.80832000       0.50979100
    61  C          0.01262000       0.58757000       0.09338120
    62  C          0.48738000       0.08757000       0.40661880
    63  C         -0.01262000       0.41243000       0.90661880
    64  C          0.51262000       0.91243000       0.59338120
    65  H          0.02430000       0.64640000       0.16140000
    66  H          0.47570000       0.14640000       0.33860000
    67  H          0.97570000       0.35360000       0.83860000
    68  H          0.52430000       0.85360000       0.66140000
    69  C          0.90692810       0.60157000       0.91621880
    70  C          0.59307190       0.10157000       0.58378120
    71  C          0.09307190       0.39843000       0.08378120
    72  C          0.40692810       0.89843000       0.41621880
    73  H          0.84130000       0.67030000       0.85470000
    74  H          0.65870000       0.17030000       0.64530000
    75  H          0.15870000       0.32970000       0.14530000
    76  H          0.34130000       0.82970000       0.35470000
