data_LUPQAQ
_symmetry_space_group_name_H-M    'P1'
_symmetry_Int_Tables_number       1
loop_
_symmetry_equiv_pos_site_id
_symmetry_equiv_pos_as_xyz
1 x,y,z
_cell_length_a                   11.86754
_cell_length_b                   15.60724
_cell_length_c                   12.28284
_cell_angle_alpha                90.0
_cell_angle_beta                 112.86001
_cell_angle_gamma                90.0
loop_
_atom_site_label
_atom_site_type_symbol
_atom_site_fract_x
_atom_site_fract_y
_atom_site_fract_z
     1  O          0.61671800       0.06223600       0.48931800
     2  O          0.88328200       0.56223600       0.01068200
     3  O          0.38328200       0.93776400       0.51068200
     4  O          0.11671800       0.43776400      -0.01068200
     5  C          0.84632120       0.15283900       0.46504130
     6  C          0.65367880       0.65283900       0.03495870
     7  C          0.15367880       0.84716100       0.53495870
     8  C          0.34632120       0.34716100       0.96504130
     9  H          0.82470000       0.19300000       0.51180000
    10  H          0.67530000       0.69300000      -0.01180000
    11  H          0.17530000       0.80700000       0.48820000
    12  H          0.32470000       0.30700000       0.01180000
    13  C          0.91457130       0.17805100       0.40057140
    14  C          0.58542870       0.67805100       0.09942860
    15  C          0.08542870       0.82194900       0.59942860
    16  C          0.41457130       0.32194900       0.90057140
    17  H          0.93950000       0.23610000       0.40310000
    18  H          0.56050000       0.73610000       0.09690000
    19  H          0.06050000       0.76390000       0.59690000
    20  H          0.43950000       0.26390000       0.90310000
    21  C          0.94643130       0.11967110       0.33294140
    22  C          0.55356870       0.61967110       0.16705860
    23  C          0.05356870       0.88032890       0.66705860
    24  C          0.44643130       0.38032890       0.83294140
    25  H         -0.00670000       0.13800000       0.28970000
    26  H          0.50670000       0.63800000       0.21030000
    27  H          0.00670000       0.86200000       0.71030000
    28  H          0.49330000       0.36200000       0.78970000
    29  C          0.91097120       0.03464100       0.32735130
    30  C          0.58902880       0.53464100       0.17264870
    31  C          0.08902880       0.96535900       0.67264870
    32  C          0.41097120       0.46535900       0.82735130
    33  H          0.93290000      -0.00530000       0.28050000
    34  H          0.56710000       0.49470000       0.21950000
    35  H          0.06710000       0.00530000       0.71950000
    36  H          0.43290000       0.50530000       0.78050000
    37  C          0.84282110       0.00890900       0.39147120
    38  C          0.65717890       0.50890900       0.10852880
    39  C          0.15717890      -0.00890900       0.60852880
    40  C          0.34282110       0.49109100       0.89147120
    41  C          0.81067110       0.06834800       0.45974120
    42  C          0.68932890       0.56834800       0.04025880
    43  C          0.18932890       0.93165200       0.54025880
    44  C          0.31067110       0.43165200       0.95974120
    45  C          0.79423120       0.92454200       0.40360120
    46  C          0.70576880       0.42454200       0.09639880
    47  C          0.20576880       0.07545800       0.59639880
    48  C          0.29423120       0.57545800       0.90360120
    49  C          0.80154130       0.84548100       0.35461140
    50  C          0.69845870       0.34548100       0.14538860
    51  C          0.19845870       0.15451900       0.64538860
    52  C          0.30154130       0.65451900       0.85461140
    53  H          0.84460000       0.83950000       0.30400000
    54  H          0.65540000       0.33950000       0.19600000
    55  H          0.15540000       0.16050000       0.69600000
    56  H          0.34460000       0.66050000       0.80400000
    57  C          0.74467140       0.77557100       0.38112140
    58  C          0.75532860       0.27557100       0.11887860
    59  C          0.25532860       0.22442900       0.61887860
    60  C          0.24467140       0.72442900       0.88112140
    61  H          0.74890000       0.72120000       0.34810000
    62  H          0.75110000       0.22120000       0.15190000
    63  H          0.25110000       0.27880000       0.65190000
    64  H          0.24890000       0.77880000       0.84810000
    65  C          0.68189140       0.78360100       0.45478140
    66  C          0.81810860       0.28360100       0.04521860
    67  C          0.31810860       0.21639900       0.54521860
    68  C          0.18189140       0.71639900       0.95478140
    69  H          0.64310000       0.73490000       0.47130000
    70  H          0.85690000       0.23490000       0.02870000
    71  H          0.35690000       0.26510000       0.52870000
    72  H          0.14310000       0.76510000       0.97130000
    73  C          0.67498130       0.86247100       0.50506130
    74  C          0.82501870       0.36247100      -0.00506130
    75  C          0.32501870       0.13752900       0.49493870
    76  C          0.17498130       0.63752900       0.00506130
    77  H          0.63260000       0.86810000       0.55630000
    78  H          0.86740000       0.36810000       0.94370000
    79  H          0.36740000       0.13190000       0.44370000
    80  H          0.13260000       0.63190000       0.05630000
    81  C          0.73136110       0.93222200       0.47841120
    82  C          0.76863890       0.43222200       0.02158880
    83  C          0.26863890       0.06777800       0.52158880
    84  C          0.23136110       0.56777800       0.97841120
    85  C          0.73504110       0.02506800       0.52071120
    86  C          0.76495890       0.52506800       0.97928880
    87  C          0.26495890       0.97493200       0.47928880
    88  C          0.23504110       0.47493200       0.02071120
    89  C          0.79829120       0.02813800       0.65027130
    90  C          0.70170880       0.52813800       0.84972870
    91  C          0.20170880       0.97186200       0.34972870
    92  C          0.29829120       0.47186200       0.15027130
    93  C          0.85644110       0.02323800       0.75473130
    94  C          0.64355890       0.52323800       0.74526870
    95  C          0.14355890       0.97676200       0.24526870
    96  C          0.35644110       0.47676200       0.25473130
    97  C          0.92796110       0.01220800       0.87828120
    98  C          0.57203890       0.51220800       0.62171880
    99  C          0.07203890       0.98779200       0.12171880
   100  C          0.42796110       0.48779200       0.37828120
   101  C         -0.00074890       0.08051800       0.94600120
   102  C          0.50074890       0.58051800       0.55399880
   103  C          0.00074890       0.91948200       0.05399880
   104  C          0.49925110       0.41948200       0.44600120
   105  C          0.00146120       0.16258800       0.89477130
   106  C          0.49853880       0.66258800       0.60522870
   107  C         -0.00146120       0.83741200       0.10522870
   108  C          0.50146120       0.33741200       0.39477130
   109  H          0.95500000       0.17140000       0.81290000
   110  H          0.54500000       0.67140000       0.68710000
   111  H          0.04500000       0.82860000       0.18710000
   112  H          0.45500000       0.32860000       0.31290000
   113  C          0.92827110       0.93155200       0.93113120
   114  C          0.57172890       0.43155200       0.56886880
   115  C          0.07172890       0.06844800       0.06886880
   116  C          0.42827110       0.56844800       0.43113120
   117  C          0.85847120       0.86104100       0.86509130
   118  C          0.64152880       0.36104100       0.63490870
   119  C          0.14152880       0.13895900       0.13490870
   120  C          0.35847120       0.63895900       0.36509130
   121  H          0.80970000       0.86810000       0.78340000
   122  H          0.69030000       0.36810000       0.71660000
   123  H          0.19030000       0.13190000       0.21660000
   124  H          0.30970000       0.63190000       0.28340000
   125  C          0.86053130       0.78395100       0.91701140
   126  C          0.63946870       0.28395100       0.58298860
   127  C          0.13946870       0.21604900       0.08298860
   128  C          0.36053130       0.71604900       0.41701140
   129  H          0.81420000       0.73760000       0.87120000
   130  H          0.68580000       0.23760000       0.62880000
   131  H          0.18580000       0.26240000       0.12880000
   132  H          0.31420000       0.76240000       0.37120000
   133  C          0.93112130       0.77221100       0.03864140
   134  C          0.56887870       0.27221100       0.46135860
   135  C          0.06887870       0.22778900       0.96135860
   136  C          0.43112130       0.72778900       0.53864140
   137  H          0.93130000       0.71810000       0.07410000
   138  H          0.56870000       0.21810000       0.42590000
   139  H          0.06870000       0.28190000       0.92590000
   140  H          0.43130000       0.78190000       0.57410000
   141  H          0.57770000       0.03910000       0.41120000
   142  H          0.92230000       0.53910000       0.08880000
   143  H          0.42230000       0.96090000       0.58880000
   144  H          0.07770000       0.46090000       0.91120000
   145  N          0.47821100       0.00784800       0.25733900
   146  N          0.02178900       0.50784800       0.24266100
   147  N          0.52178900      -0.00784800       0.74266100
   148  N          0.97821100       0.49215200       0.75733900
   149  C          0.44881120       0.05356900       0.15750130
   150  C          0.05118880       0.55356900       0.34249870
   151  C          0.55118880       0.94643100       0.84249870
   152  C          0.94881120       0.44643100       0.65750130
   153  C          0.37125120       0.02200900       0.04731130
   154  C          0.12874880       0.52200900       0.45268870
   155  C          0.62874880       0.97799100       0.95268870
   156  C          0.87125120       0.47799100       0.54731130
   157  C          0.32694140       0.93943900       0.04321140
   158  C          0.17305860       0.43943900       0.45678860
   159  C          0.67305860       0.06056100       0.95678860
   160  C          0.82694140       0.56056100       0.54321140
   161  H          0.27430000       0.91580000       0.96980000
   162  H          0.22570000       0.41580000       0.53020000
   163  H          0.72570000       0.08420000       0.03020000
   164  H          0.77430000       0.58420000       0.46980000
   165  C          0.35888140       0.89130890       0.14524150
   166  C          0.14111860       0.39130890       0.35475850
   167  C          0.64111860       0.10869110       0.85475850
   168  C          0.85888140       0.60869110       0.64524150
   169  H          0.33020000       0.83420000       0.14280000
   170  H          0.16980000       0.33420000       0.35720000
   171  H          0.66980000       0.16580000       0.85720000
   172  H          0.83020000       0.66580000       0.64280000
   173  C          0.43294130       0.92799900       0.24995150
   174  C          0.06705870       0.42799900       0.25004850
   175  C          0.56705870       0.07200100       0.75004850
   176  C          0.93294130       0.57200100       0.74995150
   177  H          0.45330000       0.89560000       0.32050000
   178  H          0.04670000       0.39560000       0.17950000
   179  H          0.54670000       0.10440000       0.67950000
   180  H          0.95330000       0.60440000       0.82050000
   181  C          0.33549160       0.07561100       0.93706860
   182  C          0.16450840       0.57561100       0.56293140
   183  C          0.66450840       0.92438900       0.06293140
   184  C          0.83549160       0.42438900       0.43706860
   185  H          0.28450000       0.04150000       0.86870000
   186  H          0.21550000       0.54150000       0.63130000
   187  H          0.71550000       0.95850000       0.13130000
   188  H          0.78450000       0.45850000       0.36870000
   189  H          0.40930000       0.09440000       0.92630000
   190  H          0.09070000       0.59440000       0.57370000
   191  H          0.59070000       0.90560000       0.07370000
   192  H          0.90930000       0.40560000       0.42630000
   193  H          0.28940000       0.12580000       0.94450000
   194  H          0.21060000       0.62580000       0.55550000
   195  H          0.71060000       0.87420000       0.05550000
   196  H          0.78940000       0.37420000       0.44450000
   197  C          0.50356150       0.14113100       0.16989100
   198  C         -0.00356150       0.64113100       0.33010900
   199  C          0.49643850       0.85886900       0.83010900
   200  C          0.00356150       0.35886900       0.66989100
   201  H          0.57970000       0.14310000       0.24050000
   202  H          0.92030000       0.64310000       0.25950000
   203  H          0.42030000       0.85690000       0.75950000
   204  H          0.07970000       0.35690000       0.74050000
   205  H          0.44590000       0.18340000       0.17730000
   206  H          0.05410000       0.68340000       0.32270000
   207  H          0.55410000       0.81660000       0.82270000
   208  H          0.94590000       0.31660000       0.67730000
   209  H          0.52100000       0.15430000       0.10000000
   210  H          0.97900000       0.65430000       0.40000000
   211  H          0.47900000       0.84570000       0.90000000
   212  H          0.02100000       0.34570000       0.60000000
