data_LUQHUD
_symmetry_space_group_name_H-M    'P1'
_symmetry_Int_Tables_number       1
loop_
_symmetry_equiv_pos_site_id
_symmetry_equiv_pos_as_xyz
1 x,y,z
_cell_length_a                   10.95168
_cell_length_b                   12.59179
_cell_length_c                   12.70739
_cell_angle_alpha                109.92401
_cell_angle_beta                 94.55401
_cell_angle_gamma                97.57801
loop_
_atom_site_label
_atom_site_type_symbol
_atom_site_fract_x
_atom_site_fract_y
_atom_site_fract_z
     1  O          0.29554100       0.83416100       0.96183100
     2  O          0.70445900       0.16583900       0.03816900
     3  H          0.30860000       0.84780000       0.90310000
     4  H          0.69140000       0.15220000       0.09690000
     5  O          0.91478100       0.82192100       0.90639200
     6  O          0.08521900       0.17807900       0.09360800
     7  O          0.49694100       0.89931110       0.12026900
     8  O          0.50305900       0.10068890       0.87973100
     9  H          0.43550000       0.88580000       0.07090000
    10  H          0.56450000       0.11420000       0.92910000
    11  O          0.94505110       0.63513900       0.15847100
    12  O          0.05494890       0.36486100       0.84152900
    13  O          0.93050100       0.58940900       0.97171100
    14  O          0.06949900       0.41059100       0.02828900
    15  O          0.91782110       0.89260100       0.27038900
    16  O          0.08217890       0.10739900       0.72961100
    17  O          0.07380100       0.92517900       0.05584900
    18  O          0.92619900       0.07482100       0.94415100
    19  C          0.22178140       0.72278130       0.93147880
    20  C          0.77821860       0.27721870       0.06852120
    21  H          0.22500000       0.67480000       0.85110000
    22  H          0.77500000       0.32520000       0.14890000
    23  C          0.08683130       0.73322120       0.95468890
    24  C          0.91316870       0.26677880       0.04531110
    25  C          0.04435130       0.84271120       0.94768880
    26  C          0.95564870       0.15728880       0.05231120
    27  H          0.09280000       0.86910000       0.89510000
    28  H          0.90720000       0.13090000       0.10490000
    29  C          0.82238130       0.84954120       0.97248880
    30  C          0.17761870       0.15045880       0.02751120
    31  C          0.82231130       0.86768120       0.08824120
    32  C          0.17768870       0.13231880       0.91175880
    33  C          0.70905140       0.88312130       0.13351120
    34  C          0.29094860       0.11687870       0.86648880
    35  H          0.70710000       0.89370000       0.21100000
    36  H          0.29290000       0.10630000       0.78900000
    37  C          0.60173140       0.88335130       0.06934130
    38  C          0.39826860       0.11664870       0.93065870
    39  C          0.26568140       0.66525140       0.01257130
    40  C          0.73431860       0.33474860       0.98742870
    41  H          0.35750000       0.67550000       0.02490000
    42  H          0.64250000       0.32450000       0.97510000
    43  H          0.23140000       0.58230000       0.98330000
    44  H          0.76860000       0.41770000       0.01670000
    45  C          0.21451130       0.72775140       0.12213120
    46  C          0.78548870       0.27224860       0.87786880
    47  H          0.26910000       0.80160000       0.16590000
    48  H          0.73090000       0.19840000       0.83410000
    49  H          0.20640000       0.68010000       0.16990000
    50  H          0.79360000       0.31990000       0.83010000
    51  C          0.08520130       0.74725120       0.08008110
    52  C          0.91479870       0.25274880       0.91991890
    53  C          0.98139130       0.65333120       0.07812130
    54  C          0.01860870       0.34666880       0.92187870
    55  C         -0.00157860       0.62086130       0.88977880
    56  C          0.00157860       0.37913870       0.11022120
    57  H          0.94010000       0.63100000       0.83170000
    58  H          0.05990000       0.36900000       0.16830000
    59  H          0.04590000       0.56020000       0.85180000
    60  H          0.95410000       0.43980000       0.14820000
    61  C          0.92919140       0.87606120       0.17135120
    62  C          0.07080860       0.12393880       0.82864880
    63  C          0.05819130       0.87030120       0.13680120
    64  C          0.94180870       0.12969880       0.86319880
    65  H          0.12120000       0.91170000       0.20500000
    66  H          0.87880000       0.08830000       0.79500000
    67  C          0.60508140       0.86975130       0.95536870
    68  C          0.39491860       0.13024870       0.04463130
    69  H          0.53250000       0.87170000       0.91030000
    70  H          0.46750000       0.12830000       0.08970000
    71  C          0.71348140       0.85354130       0.90902880
    72  C          0.28651860       0.14645870       0.09097120
    73  H          0.71460000       0.84480000       0.83190000
    74  H          0.28540000       0.15520000       0.16810000
    75  O          0.09186900       0.11998900       0.51672800
    76  O          0.90813100       0.88001100       0.48327200
    77  H          0.08210000       0.09330000       0.56830000
    78  H          0.91790000       0.90670000       0.43170000
    79  O          0.74354900       0.22745900       0.58607800
    80  O          0.25645100       0.77254100       0.41392200
    81  O          0.26024900       0.05214900       0.37461900
    82  O          0.73975100       0.94785100       0.62538100
    83  H          0.20980000       0.07130000       0.42130000
    84  H          0.79020000       0.92870000       0.57870000
    85  O          0.82352900       0.08700800       0.44740800
    86  O          0.17647100       0.91299200       0.55259200
    87  O          0.65952100       0.16681100       0.24569900
    88  O          0.34047900       0.83318900       0.75430100
    89  O          0.84105100       0.39714900       0.35777900
    90  O          0.15894900       0.60285100       0.64222100
    91  O          0.88613100       0.43642900       0.54283900
    92  O          0.11386900       0.56357100       0.45716100
    93  C          0.08632120       0.24020120       0.55888120
    94  C          0.91367880       0.75979880       0.44111880
    95  H          0.12880000       0.27840000       0.63820000
    96  H          0.87120000       0.72160000       0.36180000
    97  C          0.95140120       0.26270120       0.54750110
    98  C          0.04859880       0.73729880       0.45249890
    99  C          0.84960120       0.17152120       0.55550110
   100  C          0.15039880       0.82847880       0.44449890
   101  H          0.87790000       0.13890000       0.61300000
   102  H          0.12210000       0.86110000       0.38700000
   103  C          0.62590130       0.17480120       0.52927120
   104  C          0.37409870       0.82519880       0.47072880
   105  C          0.53291130       0.16075120       0.59403120
   106  C          0.46708870       0.83924880       0.40596880
   107  H          0.55350000       0.17840000       0.67280000
   108  H          0.44650000       0.82160000       0.32720000
   109  C          0.41035130       0.12117120       0.54447120
   110  C          0.58964870       0.87882880       0.45552880
   111  H          0.34740000       0.11180000       0.58940000
   112  H          0.65260000       0.88820000       0.41060000
   113  C          0.37912130       0.09492120       0.42828120
   114  C          0.62087870       0.90507880       0.57171880
   115  C          0.92181120       0.25574120       0.42368110
   116  C          0.07818880       0.74425880       0.57631890
   117  C          0.82204120       0.14535120       0.36801110
   118  C          0.17795880       0.85464880       0.63198890
   119  H          0.85130000       0.09620000       0.29800000
   120  H          0.14870000       0.90380000       0.70200000
   121  C          0.47157130       0.10920120       0.36360120
   122  C          0.52842870       0.89079880       0.63639880
   123  H          0.45070000       0.09160000       0.28480000
   124  H          0.54930000       0.90840000       0.71520000
   125  C          0.59575130       0.14935120       0.41315120
   126  C          0.40424870       0.85064880       0.58684880
   127  C          0.68898130       0.15868120       0.33674110
   128  C          0.31101870       0.84131880       0.66325890
   129  C          0.04666130       0.24993130       0.37398120
   130  C          0.95333870       0.75006870       0.62601880
   131  H          0.05150000       0.17040000       0.32590000
   132  H          0.94850000       0.82960000       0.67410000
   133  H          0.05700000       0.29990000       0.32860000
   134  H          0.94300000       0.70010000       0.67140000
   135  C          0.14513130       0.29284130       0.47875120
   136  C          0.85486870       0.70715870       0.52124880
   137  H          0.22430000       0.26580000       0.46000000
   138  H          0.77570000       0.73420000       0.54000000
   139  H          0.16090000       0.37760000       0.51220000
   140  H          0.83910000       0.62240000       0.48780000
   141  C          0.87747130       0.36766120       0.43352120
   142  C          0.12252870       0.63233880       0.56647880
   143  C          0.94275130       0.38691120       0.61856120
   144  C          0.05724870       0.61308880       0.38143880
   145  H          0.89130000       0.38850000       0.67950000
   146  H          0.10870000       0.61150000       0.32050000
   147  H          0.02660000       0.43090000       0.65330000
   148  H          0.97340000       0.56910000       0.34670000
   149  C          0.34662000       0.44982000       0.24752000
   150  C          0.65338000       0.55018000       0.75248000
   151  H          0.31600000       0.52110000       0.28880000
   152  H          0.68400000       0.47890000       0.71120000
   153  H          0.27580000       0.38560000       0.22550000
   154  H          0.72420000       0.61440000       0.77450000
   155  C          0.39492000       0.45977190       0.14172000
   156  C          0.60508000       0.54022810       0.85828000
   157  H          0.41650000       0.38550000       0.09570000
   158  H          0.58350000       0.61450000       0.90430000
   159  H          0.32900000       0.47790000       0.09590000
   160  H          0.67100000       0.52210000       0.90410000
   161  C          0.50812000       0.55212000       0.17172000
   162  C          0.49188000       0.44788000       0.82828000
   163  H          0.48380000       0.62770000       0.20870000
   164  H          0.51620000       0.37230000       0.79130000
   165  H          0.54180000       0.55250000       0.10170000
   166  H          0.45820000       0.44750000       0.89830000
   167  C          0.60792000       0.53342000       0.25012000
   168  C          0.39208000       0.46658000       0.74988000
   169  H          0.64010000       0.46290000       0.20920000
   170  H          0.35990000       0.53710000       0.79080000
   171  H          0.67780000       0.59860000       0.27260000
   172  H          0.32220000       0.40140000       0.72740000
   173  C          0.56012000       0.52262000       0.35480190
   174  C          0.43988000       0.47738000       0.64519810
   175  H          0.53830000       0.59670000       0.40120000
   176  H          0.46170000       0.40330000       0.59880000
   177  H          0.62620000       0.50440000       0.40030000
   178  H          0.37380000       0.49560000       0.59970000
   179  C          0.44672000       0.42962000       0.32472000
   180  C          0.55328000       0.57038000       0.67528000
   181  H          0.41360000       0.42840000       0.39460000
   182  H          0.58640000       0.57160000       0.60540000
   183  H          0.47080000       0.35420000       0.28660000
   184  H          0.52920000       0.64580000       0.71340000
