data_LUSXUU
_symmetry_space_group_name_H-M    'P1'
_symmetry_Int_Tables_number       1
loop_
_symmetry_equiv_pos_site_id
_symmetry_equiv_pos_as_xyz
1 x,y,z
_cell_length_a                   6.176812
_cell_length_b                   7.510115
_cell_length_c                   19.0924
_cell_angle_alpha                79.433
_cell_angle_beta                 82.903
_cell_angle_gamma                84.253
loop_
_atom_site_label
_atom_site_type_symbol
_atom_site_fract_x
_atom_site_fract_y
_atom_site_fract_z
     1  Cl         0.02361900       0.27702800       0.08235200
     2  Cl         0.97638100       0.72297200       0.91764800
     3  O          0.31171140       0.73610880       0.49294500
     4  O          0.68828860       0.26389120       0.50705500
     5  O          0.04533150       0.83005870       0.42386500
     6  O          0.95466850       0.16994130       0.57613500
     7  N          0.25967170       0.37968140       0.48333600
     8  N          0.74032830       0.62031860       0.51666400
     9  C          0.24332000       0.37519160       0.40621700
    10  C          0.75668000       0.62480840       0.59378300
    11  H          0.38820000       0.39440000       0.37860000
    12  H          0.61180000       0.60560000       0.62140000
    13  H          0.13890000       0.47620000       0.38740000
    14  H          0.86110000       0.52380000       0.61260000
    15  C          0.16762000       0.19529160       0.39478700
    16  C          0.83238000       0.80470840       0.60521300
    17  H          0.02020000       0.18070000       0.42250000
    18  H          0.97980000       0.81930000       0.57750000
    19  C          0.21932000       0.85388840       0.44802600
    20  C          0.78068000       0.14611160       0.55197400
    21  C          0.13752000       0.21129160       0.31589700
    22  C          0.86248000       0.78870840       0.68410300
    23  C          0.32082000       0.03365170       0.42526700
    24  C          0.67918000       0.96634830       0.57473300
    25  H          0.44620000       0.01830000       0.38860000
    26  H          0.55380000       0.98170000       0.61140000
    27  H          0.37960000       0.06380000       0.46720000
    28  H          0.62040000       0.93620000       0.53280000
    29  C          0.93788000       0.28577190       0.29227700
    30  C          0.06212000       0.71422810       0.70772300
    31  H          0.82360000       0.32280000       0.32590000
    32  H          0.17640000       0.67720000       0.67410000
    33  C          0.06933000       0.25252000       0.17231800
    34  C          0.93067000       0.74748000       0.82768200
    35  C          0.30282000       0.16092000       0.26505800
    36  C          0.69718000       0.83908000       0.73494200
    37  H          0.44140000       0.11260000       0.27970000
    38  H          0.55860000       0.88740000       0.72030000
    39  C          0.90197000       0.30722000       0.22080800
    40  C          0.09803000       0.69278000       0.77919200
    41  H          0.76520000       0.35850000       0.20550000
    42  H          0.23480000       0.64150000       0.79450000
    43  C          0.26923000       0.17982000       0.19344800
    44  C          0.73077000       0.82018000       0.80655200
    45  H          0.38270000       0.14310000       0.15950000
    46  H          0.61730000       0.85690000       0.84050000
    47  H          0.14520000       0.32200000       0.51370000
    48  H          0.85480000       0.67800000       0.48630000
    49  H          0.39000000       0.32110000       0.49660000
    50  H          0.61000000       0.67890000       0.50340000
    51  H          0.25880000       0.50260000       0.48910000
    52  H          0.74120000       0.49740000       0.51090000
    53  O          0.65838820       0.67588840       0.36127500
    54  O          0.34161180       0.32411160       0.63872500
    55  O          0.91591810       0.84196840       0.29618600
    56  O          0.08408190       0.15803160       0.70381400
    57  C          0.73938000       0.75159820       0.30369700
    58  C          0.26062000       0.24840180       0.69630300
    59  C          0.65178000       0.75177820       0.23454700
    60  C          0.34822000       0.24822180       0.76545300
    61  C          0.76428000       0.82008000       0.16883800
    62  C          0.23572000       0.17992000       0.83116200
    63  H          0.89920000       0.87210000       0.16720000
    64  H          0.10080000       0.12790000       0.83280000
    65  C          0.45238000       0.67948000       0.23583800
    66  C          0.54762000       0.32052000       0.76416200
    67  H          0.37340000       0.63420000       0.28040000
    68  H          0.62660000       0.36580000       0.71960000
    69  C          0.36847000       0.67328000       0.17248900
    70  C          0.63153000       0.32672000       0.82751100
    71  H          0.23240000       0.62320000       0.17410000
    72  H          0.76760000       0.37680000       0.82590000
    73  C          0.47997000       0.73918000       0.10653800
    74  C          0.52003000       0.26082000       0.89346200
    75  C          0.67847000       0.81198000       0.10581800
    76  C          0.32153000       0.18802000       0.89418200
    77  H          0.75720000       0.85720000       0.06120000
    78  H          0.24280000       0.14280000       0.93880000
    79  C          0.38376000       0.73427000       0.03810100
    80  C          0.61624000       0.26573000       0.96189900
    81  H          0.26390000       0.82960000       0.03160000
    82  H          0.73610000       0.17040000       0.96840000
    83  H          0.32770000       0.61540000       0.04080000
    84  H          0.67230000       0.38460000       0.95920000
    85  H          0.49720000       0.75450000      -0.00260000
    86  H          0.50280000       0.24550000       0.00260000
    87  H          0.95360000       0.84180000       0.34070000
    88  H          0.04640000       0.15820000       0.65930000
