data_LUTOSK
_symmetry_space_group_name_H-M    'P1'
_symmetry_Int_Tables_number       1
loop_
_symmetry_equiv_pos_site_id
_symmetry_equiv_pos_as_xyz
1 x,y,z
_cell_length_a                   14.7908
_cell_length_b                   15.9538
_cell_length_c                   12.0715
_cell_angle_alpha                90.0
_cell_angle_beta                 90.0
_cell_angle_gamma                90.0
loop_
_atom_site_label
_atom_site_type_symbol
_atom_site_fract_x
_atom_site_fract_y
_atom_site_fract_z
     1  C          0.13650000       0.81690000       0.54120000
     2  C          0.63650000       0.68310000       0.45880000
     3  C          0.36350000       0.31690000       0.45880000
     4  C          0.86350000       0.18310000       0.54120000
     5  C          0.07410000       0.83440000       0.63880000
     6  C          0.57410000       0.66560000       0.36120000
     7  C          0.42590000       0.33440000       0.36120000
     8  C          0.92590000       0.16560000       0.63880000
     9  C          0.08150000       0.75080000       0.70140000
    10  C          0.58150000       0.74920000       0.29860000
    11  C          0.41850000       0.25080000       0.29860000
    12  C          0.91850000       0.24920000       0.70140000
    13  C          0.02600000       0.68920000       0.63780000
    14  C          0.52600000       0.81080000       0.36220000
    15  C          0.47400000       0.18920000       0.36220000
    16  C          0.97400000       0.31080000       0.63780000
    17  C          0.92860000       0.58290000       0.27450000
    18  C          0.42860000       0.91710000       0.72550000
    19  C          0.57140000       0.08290000       0.72550000
    20  C          0.07140000       0.41710000       0.27450000
    21  C          0.93480000       0.58770000       0.15830000
    22  C          0.43480000       0.91230000       0.84170000
    23  C          0.56520000       0.08770000       0.84170000
    24  C          0.06520000       0.41230000       0.15830000
    25  C          0.98750000       0.64520000       0.10560000
    26  C          0.48750000       0.85480000       0.89440000
    27  C          0.51250000       0.14520000       0.89440000
    28  C          0.01250000       0.35480000       0.10560000
    29  C          0.03620000       0.70380000       0.17010000
    30  C          0.53620000       0.79620000       0.82990000
    31  C          0.46380000       0.20380000       0.82990000
    32  C          0.96380000       0.29620000       0.17010000
    33  C          0.09160000       0.75650000       0.34950000
    34  C          0.59160000       0.74350000       0.65050000
    35  C          0.40840000       0.25650000       0.65050000
    36  C          0.90840000       0.24350000       0.34950000
    37  C          0.97610000       0.63440000       0.46060000
    38  C          0.47610000       0.86560000       0.53940000
    39  C          0.52390000       0.13440000       0.53940000
    40  C          0.02390000       0.36560000       0.46060000
    41  C          0.03390000       0.68650000       0.52420000
    42  C          0.53390000       0.81350000       0.47580000
    43  C          0.46610000       0.18650000       0.47580000
    44  C          0.96610000       0.31350000       0.52420000
    45  C          0.98050000       0.63790000       0.33850000
    46  C          0.48050000       0.86210000       0.66150000
    47  C          0.51950000       0.13790000       0.66150000
    48  C          0.01950000       0.36210000       0.33850000
    49  C          0.03510000       0.69930000       0.28630000
    50  C          0.53510000       0.80070000       0.71370000
    51  C          0.46490000       0.19930000       0.71370000
    52  C          0.96490000       0.30070000       0.28630000
    53  C          0.11020000       0.73670000       0.47190000
    54  C          0.61020000       0.76330000       0.52810000
    55  C          0.38980000       0.23670000       0.52810000
    56  C          0.88980000       0.26330000       0.47190000
    57  O          0.98270000       0.85450000       0.61130000
    58  O          0.48270000       0.64550000       0.38870000
    59  O          0.51730000       0.35450000       0.38870000
    60  O          0.01730000       0.14550000       0.61130000
    61  O          0.96770000       0.64420000       0.69470000
    62  O          0.46770000       0.85580000       0.30530000
    63  O          0.53230000       0.14420000       0.30530000
    64  O          0.03230000       0.35580000       0.69470000
    65  O          0.87250000       0.52460000       0.31580000
    66  O          0.37250000       0.97540000       0.68420000
    67  O          0.62750000       0.02460000       0.68420000
    68  O          0.12750000       0.47540000       0.31580000
    69  C         -0.00600000       0.64910000       0.98090000
    70  C          0.49400000       0.85090000       0.01910000
    71  C          0.50600000       0.14910000       0.01910000
    72  C          0.00600000       0.35090000       0.98090000
    73  O          0.08400000       0.76310000       0.11490000
    74  O          0.58400000       0.73690000       0.88510000
    75  O          0.41600000       0.26310000       0.88510000
    76  O          0.91600000       0.23690000       0.11490000
    77  O          0.13100000       0.81630000       0.30660000
    78  O          0.63100000       0.68370000       0.69340000
    79  O          0.36900000       0.31630000       0.69340000
    80  O          0.86900000       0.18370000       0.30660000
    81  O          0.92010000       0.58640000       0.50780000
    82  O          0.42010000       0.91360000       0.49220000
    83  O          0.57990000       0.08640000       0.49220000
    84  O          0.07990000       0.41360000       0.50780000
    85  C          0.22310000       0.79100000       0.59910000
    86  C          0.72310000       0.70900000       0.40090000
    87  C          0.27690000       0.29100000       0.40090000
    88  C          0.77690000       0.20900000       0.59910000
    89  C          0.27420000       0.74580000       0.50780000
    90  C          0.77420000       0.75420000       0.49220000
    91  C          0.22580000       0.24580000       0.49220000
    92  C          0.72580000       0.25420000       0.50780000
    93  C          0.20160000       0.68250000       0.47080000
    94  C          0.70160000       0.81750000       0.52920000
    95  C          0.29840000       0.18250000       0.52920000
    96  C          0.79840000       0.31750000       0.47080000
    97  C          0.20170000       0.61610000       0.55760000
    98  C          0.70170000       0.88390000       0.44240000
    99  C          0.29830000       0.11610000       0.44240000
   100  C          0.79830000       0.38390000       0.55760000
   101  C          0.24100000       0.54110000       0.94760000
   102  C          0.74100000       0.95890000       0.05240000
   103  C          0.25900000       0.04110000       0.05240000
   104  C          0.75900000       0.45890000       0.94760000
   105  C          0.26600000       0.56590000       0.05410000
   106  C          0.76600000       0.93410000       0.94590000
   107  C          0.23400000       0.06590000       0.94590000
   108  C          0.73400000       0.43410000       0.05410000
   109  C          0.28080000       0.64760000       0.08110000
   110  C          0.78080000       0.85240000       0.91890000
   111  C          0.21920000       0.14760000       0.91890000
   112  C          0.71920000       0.35240000       0.08110000
   113  C          0.26820000       0.70980000      -0.00230000
   114  C          0.76820000       0.79020000       0.00230000
   115  C          0.23180000       0.20980000       0.00230000
   116  C          0.73180000       0.29020000      -0.00230000
   117  C          0.22560000       0.75330000       0.80770000
   118  C          0.72560000       0.74670000       0.19230000
   119  C          0.27440000       0.25330000       0.19230000
   120  C          0.77440000       0.24670000       0.80770000
   121  C          0.21000000       0.57590000       0.75030000
   122  C          0.71000000       0.92410000       0.24970000
   123  C          0.29000000       0.07590000       0.24970000
   124  C          0.79000000       0.42410000       0.75030000
   125  C          0.20050000       0.63810000       0.66660000
   126  C          0.70050000       0.86190000       0.33340000
   127  C          0.29950000       0.13810000       0.33340000
   128  C          0.79950000       0.36190000       0.66660000
   129  C          0.22910000       0.60130000       0.86350000
   130  C          0.72910000       0.89870000       0.13650000
   131  C          0.27090000       0.10130000       0.13650000
   132  C          0.77090000       0.39870000       0.86350000
   133  C          0.24230000       0.68710000       0.89030000
   134  C          0.74230000       0.81290000       0.10970000
   135  C          0.25770000       0.18710000       0.10970000
   136  C          0.75770000       0.31290000       0.89030000
   137  C          0.18740000       0.72980000       0.69470000
   138  C          0.68740000       0.77020000       0.30530000
   139  C          0.31260000       0.22980000       0.30530000
   140  C          0.81260000       0.27020000       0.69470000
   141  O          0.35590000       0.70900000       0.54500000
   142  O          0.85590000       0.79100000       0.45500000
   143  O          0.14410000       0.20900000       0.45500000
   144  O          0.64410000       0.29100000       0.54500000
   145  O          0.20890000       0.53780000       0.52250000
   146  O          0.70890000       0.96220000       0.47750000
   147  O          0.29110000       0.03780000       0.47750000
   148  O          0.79110000       0.46220000       0.52250000
   149  O          0.23230000       0.45830000       0.92960000
   150  O          0.73230000       0.04170000       0.07040000
   151  O          0.26770000       0.95830000       0.07040000
   152  O          0.76770000       0.54170000       0.92960000
   153  C          0.31050000       0.67570000       0.19400000
   154  C          0.81050000       0.82430000       0.80600000
   155  C          0.18950000       0.17570000       0.80600000
   156  C          0.68950000       0.32430000       0.19400000
   157  O          0.28150000       0.78780000       0.03080000
   158  O          0.78150000       0.71220000       0.96920000
   159  O          0.21850000       0.28780000       0.96920000
   160  O          0.71850000       0.21220000       0.03080000
   161  O          0.23640000       0.82810000       0.83060000
   162  O          0.73640000       0.67190000       0.16940000
   163  O          0.26360000       0.32810000       0.16940000
   164  O          0.76360000       0.17190000       0.83060000
   165  O          0.20600000       0.49800000       0.72550000
   166  O          0.70600000       0.00200000       0.27450000
   167  O          0.29400000      -0.00200000       0.27450000
   168  O          0.79400000       0.50200000       0.72550000
   169  H          0.13920000       0.86130000       0.48700000
   170  H          0.63920000       0.63870000       0.51300000
   171  H          0.36080000       0.36130000       0.51300000
   172  H          0.86080000       0.13870000       0.48700000
   173  H          0.10220000       0.88170000       0.68030000
   174  H          0.60220000       0.61830000       0.31970000
   175  H          0.39780000       0.38170000       0.31970000
   176  H          0.89780000       0.11830000       0.68030000
   177  H          0.06070000       0.75340000       0.78280000
   178  H          0.56070000       0.74660000       0.21720000
   179  H          0.43930000       0.25340000       0.21720000
   180  H          0.93930000       0.24660000       0.78280000
   181  H          0.89990000       0.55060000       0.11420000
   182  H          0.39990000       0.94940000       0.88580000
   183  H          0.60010000       0.05060000       0.88580000
   184  H          0.10010000       0.44940000       0.11420000
   185  H          0.04770000       0.63640000       0.96580000
   186  H          0.54770000       0.86360000       0.03420000
   187  H          0.45230000       0.13640000       0.03420000
   188  H          0.95230000       0.36360000       0.96580000
   189  H          0.97700000       0.70460000       0.95430000
   190  H          0.47700000       0.79540000       0.04570000
   191  H          0.52300000       0.20460000       0.04570000
   192  H          0.02300000       0.29540000       0.95430000
   193  H          0.95240000       0.61070000       0.95300000
   194  H          0.45240000       0.88930000       0.04700000
   195  H          0.54760000       0.11070000       0.04700000
   196  H          0.04760000       0.38930000       0.95300000
   197  H          0.26240000       0.84010000       0.63360000
   198  H          0.76240000       0.65990000       0.36640000
   199  H          0.23760000       0.34010000       0.36640000
   200  H          0.73760000       0.15990000       0.63360000
   201  H          0.28470000       0.78900000       0.45250000
   202  H          0.78470000       0.71100000       0.54750000
   203  H          0.21530000       0.28900000       0.54750000
   204  H          0.71530000       0.21100000       0.45250000
   205  H          0.21340000       0.66120000       0.40090000
   206  H          0.71340000       0.83880000       0.59910000
   207  H          0.28660000       0.16120000       0.59910000
   208  H          0.78660000       0.33880000       0.40090000
   209  H          0.26720000       0.52030000       0.10550000
   210  H          0.76720000       0.97970000       0.89450000
   211  H          0.23280000       0.02030000       0.89450000
   212  H          0.73280000       0.47970000       0.10550000
   213  H          0.37390000       0.70010000       0.18110000
   214  H          0.87390000       0.79990000       0.81890000
   215  H          0.12610000       0.20010000       0.81890000
   216  H          0.62610000       0.29990000       0.18110000
   217  H          0.30830000       0.63840000       0.24380000
   218  H          0.80830000       0.86160000       0.75620000
   219  H          0.19170000       0.13840000       0.75620000
   220  H          0.69170000       0.36160000       0.24380000
   221  H          0.26620000       0.72040000       0.22190000
   222  H          0.76620000       0.77960000       0.77810000
   223  H          0.23380000       0.22040000       0.77810000
   224  H          0.73380000       0.27960000       0.22190000
   225  H          0.94080000       0.61080000       0.63950000
   226  H          0.44080000       0.88920000       0.36050000
   227  H          0.55920000       0.11080000       0.36050000
   228  H          0.05920000       0.38920000       0.63950000
   229  H          0.86390000       0.52780000       0.38900000
   230  H          0.36390000       0.97220000       0.61100000
   231  H          0.63610000       0.02780000       0.61100000
   232  H          0.13610000       0.47220000       0.38900000
   233  H          0.13200000       0.79530000       0.17240000
   234  H          0.63200000       0.70470000       0.82760000
   235  H          0.36800000       0.29530000       0.82760000
   236  H          0.86800000       0.20470000       0.17240000
   237  H          0.96230000       0.91210000       0.62100000
   238  H          0.46230000       0.58790000       0.37900000
   239  H          0.53770000       0.41210000       0.37900000
   240  H          0.03770000       0.08790000       0.62100000
   241  H          0.20680000       0.49500000       0.59620000
   242  H          0.70680000       0.00500000       0.40380000
   243  H          0.29320000      -0.00500000       0.40380000
   244  H          0.79320000       0.50500000       0.59620000
   245  H          0.22140000       0.43150000       0.85870000
   246  H          0.72140000       0.06850000       0.14130000
   247  H          0.27860000       0.93150000       0.14130000
   248  H          0.77860000       0.56850000       0.85870000
   249  H          0.27080000       0.82460000       0.96970000
   250  H          0.77080000       0.67540000       0.03030000
   251  H          0.22920000       0.32460000       0.03030000
   252  H          0.72920000       0.17540000       0.96970000
   253  H          0.38410000       0.71010000       0.47750000
   254  H          0.88410000       0.78990000       0.52250000
   255  H          0.11590000       0.21010000       0.52250000
   256  H          0.61590000       0.28990000       0.47750000
   257  O         -0.00000000       0.00000000       0.79030000
   258  O          0.50000000       0.50000000       0.20970000
   259  C          0.00000000       0.00000000       0.88890000
   260  C          0.50000000       0.50000000       0.11110000
   261  C          0.02930000       0.92340000       0.95220000
   262  C          0.52930000       0.57660000       0.04780000
   263  C          0.47070000       0.42340000       0.04780000
   264  C          0.97070000       0.07660000       0.95220000
   265  O          0.50000000       0.50000000       0.54080000
   266  O          0.00000000      -0.00000000       0.45920000
   267  C          0.50000000       0.50000000       0.63940000
   268  C          0.00000000      -0.00000000       0.36060000
   269  C          0.43390000       0.54880000       0.70540000
   270  C          0.93390000       0.95120000       0.29460000
   271  C          0.06610000       0.04880000       0.29460000
   272  C          0.56610000       0.45120000       0.70540000
