data_MABMUA
_symmetry_space_group_name_H-M    'P1'
_symmetry_Int_Tables_number       1
loop_
_symmetry_equiv_pos_site_id
_symmetry_equiv_pos_as_xyz
1 x,y,z
_cell_length_a                   7.23964
_cell_length_b                   11.60089
_cell_length_c                   13.890912
_cell_angle_alpha                109.0217
_cell_angle_beta                 97.5586
_cell_angle_gamma                104.3856
loop_
_atom_site_label
_atom_site_type_symbol
_atom_site_fract_x
_atom_site_fract_y
_atom_site_fract_z
     1  S          0.24324900       0.65746600       0.35275400
     2  S          0.75675100       0.34253400       0.64724600
     3  O         -0.01063000       0.14875170       0.26684130
     4  O          0.01063000       0.85124830       0.73315870
     5  O          0.79447000       0.21302000       0.17078150
     6  O          0.20553000       0.78698000       0.82921850
     7  O          0.26484000       0.91702000       0.48671160
     8  O          0.73516000       0.08298000       0.51328840
     9  O          0.28144000       0.00182000       0.36993180
    10  O          0.71856000      -0.00182000       0.63006820
    11  O          0.21183000       0.41347170       0.32950130
    12  O          0.78817000       0.58652830       0.67049870
    13  N          0.25773000       0.64822000       0.16521150
    14  N          0.74227000       0.35178000       0.83478850
    15  N          0.22943000       0.45221190       0.18203150
    16  N          0.77057000       0.54778810       0.81796850
    17  H          0.22070000       0.41550000       0.11560000
    18  H          0.77930000       0.58450000       0.88440000
    19  C          0.32964000       0.21853000       0.10355190
    20  C          0.67036000       0.78147000       0.89644810
    21  H          0.40460000       0.28700000       0.09050000
    22  H          0.59540000       0.71300000       0.90950000
    23  C          0.83046000       0.18573000       0.24492000
    24  C          0.16954000       0.81427000       0.75508000
    25  C          0.24363000       0.57912000       0.22402170
    26  C          0.75637000       0.42088000       0.77597830
    27  C          0.10693000       0.13592000       0.19455180
    28  C          0.89307000       0.86408000       0.80544820
    29  C          0.21833000       0.37422000       0.23776180
    30  C          0.78167000       0.62578000       0.76223820
    31  C          0.21733000       0.24122000       0.17751180
    32  C          0.78267000       0.75878000       0.82248820
    33  N          0.27024000       0.91132000       0.39782180
    34  N          0.72976000       0.08868000       0.60217820
    35  C          0.27094000       0.77052000       0.22179190
    36  C          0.72906000       0.22948000       0.77820810
    37  H          0.28330000       0.83400000       0.19370000
    38  H          0.71670000       0.16600000       0.80630000
    39  C          0.26444000       0.79222000       0.32236190
    40  C          0.73556000       0.20778000       0.67763810
    41  C          0.22134000      -0.00663000       0.06772000
    42  C          0.77866000       0.00663000       0.93228000
    43  H          0.22280000       0.91080000       0.03120000
    44  H          0.77720000       0.08920000       0.96880000
    45  C          0.10924000       0.01392000       0.14052000
    46  C          0.89076000      -0.01392000       0.85948000
    47  H          0.03470000       0.94490000       0.15330000
    48  H          0.96530000       0.05510000       0.84670000
    49  C          0.33134000       0.09593000       0.04932000
    50  C          0.66866000       0.90407000       0.95068000
    51  H          0.40700000       0.08250000       0.00000000
    52  H          0.59300000       0.91750000      -0.00000000
    53  C          0.71584000       0.19115000       0.32763000
    54  C          0.28416000       0.80885000       0.67237000
    55  H          0.79860000       0.24980000       0.39440000
    56  H          0.20140000       0.75020000       0.60560000
    57  H          0.66910000       0.10730000       0.32990000
    58  H          0.33090000       0.89270000       0.67010000
    59  H          0.60640000       0.21980000       0.31160000
    60  H          0.39360000       0.78020000       0.68840000
    61  O          0.75643000       0.61352180       0.03174130
    62  O          0.24357000       0.38647820       0.96825870
    63  O          0.74403000       0.42414180       0.04212140
    64  O          0.25597000       0.57585820       0.95787860
    65  H          0.75690000       0.41040000       0.97920000
    66  H          0.24310000       0.58960000       0.02080000
    67  O          0.75143000       0.80013180       0.19549150
    68  O          0.24857000       0.19986820       0.80450850
    69  H          0.74340000       0.76400000       0.13510000
    70  H          0.25660000       0.23600000       0.86490000
    71  N          0.74035000       0.72683000       0.51033190
    72  N          0.25965000       0.27317000       0.48966810
    73  C          0.74834000       0.54462000       0.08386190
    74  C          0.25166000       0.45538000       0.91613810
    75  C          0.74433000       0.59032000       0.19323170
    76  C          0.25567000       0.40968000       0.80676830
    77  C          0.75054000       0.76363000       0.35099190
    78  C          0.24946000       0.23637000       0.64900810
    79  H          0.75680000       0.84860000       0.38470000
    80  H          0.24320000       0.15140000       0.61530000
    81  C          0.74844000       0.71822000       0.24592190
    82  C          0.25156000       0.28178000       0.75407810
    83  C          0.73424000       0.55423000       0.35492190
    84  C          0.26576000       0.44577000       0.64507810
    85  H          0.72690000       0.49900000       0.39100000
    86  H          0.27310000       0.50100000       0.60900000
    87  C          0.73613000       0.51092000       0.25137180
    88  C          0.26387000       0.48908000       0.74862820
    89  H          0.73190000       0.42620000       0.21820000
    90  H          0.26810000       0.57380000       0.78180000
    91  C          0.74334000       0.68293000       0.40733190
    92  C          0.25666000       0.31707000       0.59266810
    93  H          0.75150000       0.67830000       0.54530000
    94  H          0.24850000       0.32170000       0.45470000
    95  H          0.76350000       0.81440000       0.54830000
    96  H          0.23650000       0.18560000       0.45170000
