data_MABTUI
_symmetry_space_group_name_H-M    'P1'
_symmetry_Int_Tables_number       1
loop_
_symmetry_equiv_pos_site_id
_symmetry_equiv_pos_as_xyz
1 x,y,z
_cell_length_a                   5.27943
_cell_length_b                   16.25791
_cell_length_c                   25.482016
_cell_angle_alpha                90.0
_cell_angle_beta                 95.8873
_cell_angle_gamma                90.0
loop_
_atom_site_label
_atom_site_type_symbol
_atom_site_fract_x
_atom_site_fract_y
_atom_site_fract_z
     1  O          0.23712000       0.63642700       0.55001400
     2  O          0.76288000       0.13642700       0.94998600
     3  O          0.76288000       0.36357300       0.44998600
     4  O          0.23712000       0.86357300       0.05001400
     5  H          0.12220000       0.68387000       0.55044000
     6  H          0.87780000       0.18387000       0.94956000
     7  H          0.87780000       0.31613000       0.44956000
     8  H          0.12220000       0.81613000       0.05044000
     9  O          0.00392000       0.94406700       0.96085400
    10  O         -0.00392000       0.44406700       0.53914600
    11  O         -0.00392000       0.05593300       0.03914600
    12  O          0.00392000       0.55593300       0.46085400
    13  H          0.11130000       0.93067000       0.99362000
    14  H          0.88870000       0.43067000       0.50638000
    15  H          0.88870000       0.06933000       0.00638000
    16  H          0.11130000       0.56933000       0.49362000
    17  O          0.06732000       0.34704700       0.80451400
    18  O          0.93268000       0.84704700       0.69548600
    19  O          0.93268000       0.65295300       0.19548600
    20  O          0.06732000       0.15295300       0.30451400
    21  H          0.05820000       0.30948000       0.77424000
    22  H          0.94180000       0.80948000       0.72576000
    23  H          0.94180000       0.69052000       0.22576000
    24  H          0.05820000       0.19052000       0.27424000
    25  N          0.94132000       0.70433800       0.76295500
    26  N          0.05868000       0.20433800       0.73704500
    27  N          0.05868000       0.29566200       0.23704500
    28  N          0.94132000       0.79566200       0.26295500
    29  N          0.28033000       0.64247800       0.81759500
    30  N          0.71967000       0.14247800       0.68240500
    31  N          0.71967000       0.35752200       0.18240500
    32  N          0.28033000       0.85752200       0.31759500
    33  N          0.11292000       0.57702800       0.73788500
    34  N          0.88708000       0.07702800       0.76211500
    35  N          0.88708000       0.42297200       0.26211500
    36  N          0.11292000       0.92297200       0.23788500
    37  C          0.77933000       0.58172100       0.64258600
    38  C          0.22067000       0.08172100       0.85741400
    39  C          0.22067000       0.41827900       0.35741400
    40  C          0.77933000       0.91827900       0.14258600
    41  H          0.91841100       0.54440600       0.64458700
    42  H          0.08158900       0.04440600       0.85541300
    43  H          0.08158900       0.45559400       0.35541300
    44  H          0.91841100       0.95559400       0.14458700
    45  C          0.04133000       0.88699900       0.92325600
    46  C          0.95867000       0.38699900       0.57674400
    47  C          0.95867000       0.11300100       0.07674400
    48  C          0.04133000       0.61300100       0.42325600
    49  C          0.87393000       0.40276100       0.79740600
    50  C          0.12607000       0.90276100       0.70259400
    51  C          0.12607000       0.59723900       0.20259400
    52  C          0.87393000       0.09723900       0.29740600
    53  C          0.60473000       0.58166100       0.59844600
    54  C          0.39527000       0.08166100       0.90155400
    55  C          0.39527000       0.41833900       0.40155400
    56  C          0.60473000       0.91833900       0.09844600
    57  H          0.62475500       0.54469900       0.57028800
    58  H          0.37524500       0.04469900       0.92971200
    59  H          0.37524500       0.45530100       0.42971200
    60  H          0.62475500       0.95530100       0.07028800
    61  C          0.75473000       0.63590100       0.68451600
    62  C          0.24527000       0.13590100       0.81548400
    63  C          0.24527000       0.36409900       0.31548400
    64  C          0.75473000       0.86409900       0.18451600
    65  C          0.39853000       0.63588100       0.59507600
    66  C          0.60147000       0.13588100       0.90492400
    67  C          0.60147000       0.36411900       0.40492400
    68  C          0.39853000       0.86411900       0.09507600
    69  C          0.54413000       0.68876100       0.68105600
    70  C          0.45587000       0.18876100       0.81894400
    71  C          0.45587000       0.31123900       0.31894400
    72  C          0.54413000       0.81123900       0.18105600
    73  H          0.52262900       0.72539200       0.70930100
    74  H          0.47737100       0.22539200       0.79069900
    75  H          0.47737100       0.27460800       0.29069900
    76  H          0.52262900       0.77460800       0.20930100
    77  C          0.94543000       0.63840900       0.73076600
    78  C          0.05457000       0.13840900       0.76923400
    79  C          0.05457000       0.36159100       0.26923400
    80  C          0.94543000       0.86159100       0.23076600
    81  C          0.36753000       0.68842100       0.63728600
    82  C          0.63247000       0.18842100       0.86271400
    83  C          0.63247000       0.31157900       0.36271400
    84  C          0.36753000       0.81157900       0.13728600
    85  H          0.22429900       0.72403500       0.63583100
    86  H          0.77570100       0.22403500       0.86416900
    87  H          0.77570100       0.27596500       0.36416900
    88  H          0.22429900       0.77596500       0.13583100
    89  C          0.10383000       0.70090100       0.80699600
    90  C          0.89617000       0.20090100       0.69300400
    91  C          0.89617000       0.29909900       0.19300400
    92  C          0.10383000       0.79909900       0.30699600
    93  C          0.28333000       0.58330100       0.78057600
    94  C          0.71667000       0.08330100       0.71942400
    95  C          0.71667000       0.41669900       0.21942400
    96  C          0.28333000       0.91669900       0.28057600
    97  C          0.08493000       0.76697900       0.84629600
    98  C          0.91507000       0.26697900       0.65370400
    99  C          0.91507000       0.23302100       0.15370400
   100  C          0.08493000       0.73302100       0.34629600
   101  C          0.48613000       0.52073100       0.78729600
   102  C          0.51387000       0.02073100       0.71270400
   103  C          0.51387000       0.47926900       0.21270400
   104  C          0.48613000       0.97926900       0.28729600
   105  C          0.87353000       0.81925100       0.84340600
   106  C          0.12647000       0.31925100       0.65659400
   107  C          0.12647000       0.18074900       0.15659400
   108  C          0.87353000       0.68074900       0.34340600
   109  H          0.74295200       0.81359400       0.81506900
   110  H          0.25704800       0.31359400       0.68493100
   111  H          0.25704800       0.18640600       0.18493100
   112  H          0.74295200       0.68640600       0.31506900
   113  C          0.27733000       0.77849100       0.88719600
   114  C          0.72267000       0.27849100       0.61280400
   115  C          0.72267000       0.22150900       0.11280400
   116  C          0.27733000       0.72150900       0.38719600
   117  H          0.42520500       0.74491600       0.88890300
   118  H          0.57479500       0.24491600       0.61109700
   119  H          0.57479500       0.25508400       0.11109700
   120  H          0.42520500       0.75508400       0.38890300
   121  C          0.66613000       0.51959100       0.83170600
   122  C          0.33387000       0.01959100       0.66829400
   123  C          0.33387000       0.48040900       0.16829400
   124  C          0.66613000       0.98040900       0.33170600
   125  H          0.65676200       0.55958700       0.85861400
   126  H          0.34323800       0.05958700       0.64138600
   127  H          0.34323800       0.44041300       0.14138600
   128  H          0.65676200       0.94041300       0.35861400
   129  C          0.50613000       0.46152100       0.74834600
   130  C          0.49387000       0.96152100       0.75165400
   131  C          0.49387000       0.53847900       0.25165400
   132  C          0.50613000       0.03847900       0.24834600
   133  H          0.38584500       0.46134600       0.71793500
   134  H          0.61415500       0.96134600       0.78206500
   135  H          0.61415500       0.53865400       0.28206500
   136  H          0.38584500       0.03865400       0.21793500
   137  C          0.85233000       0.87900100       0.88124600
   138  C          0.14767000       0.37900100       0.61875400
   139  C          0.14767000       0.12099900       0.11875400
   140  C          0.85233000       0.62099900       0.38124600
   141  H          0.70889500       0.91462100       0.87860400
   142  H          0.29110500       0.41462100       0.62139600
   143  H          0.29110500       0.08537900       0.12139600
   144  H          0.70889500       0.58537900       0.37860400
   145  C          0.25733000       0.83799100       0.92544600
   146  C          0.74267000       0.33799100       0.57455400
   147  C          0.74267000       0.16200900       0.07455400
   148  C          0.25733000       0.66200900       0.42544600
   149  H          0.39072300       0.84521300       0.95302100
   150  H          0.60927700       0.34521300       0.54697900
   151  H          0.60927700       0.15478700       0.04697900
   152  H          0.39072300       0.65478700       0.45302100
   153  C          0.85653000       0.46132100       0.83691600
   154  C          0.14347000       0.96132100       0.66308400
   155  C          0.14347000       0.53867900       0.16308400
   156  C          0.85653000       0.03867900       0.33691600
   157  H         -0.02400300       0.46099200       0.86742800
   158  H          0.02400300       0.96099200       0.63257200
   159  H          0.02400300       0.53900800       0.13257200
   160  H         -0.02400300       0.03900800       0.36742800
   161  C          0.69743000       0.40301100       0.75303600
   162  C          0.30257000       0.90301100       0.74696400
   163  C          0.30257000       0.59698900       0.24696400
   164  C          0.69743000       0.09698900       0.25303600
   165  H          0.70801700       0.36321000       0.72604700
   166  H          0.29198300       0.86321000       0.77395300
   167  H          0.29198300       0.63679000       0.27395300
   168  H          0.70801700       0.13679000       0.22604700
   169  N          0.89467000       0.76121800       0.53578500
   170  N          0.10533000       0.26121800       0.96421500
   171  N          0.10533000       0.23878200       0.46421500
   172  N          0.89467000       0.73878200       0.03578500
   173  C          0.78337000       0.79167100       0.57644700
   174  C          0.21663000       0.29167100       0.92355300
   175  C          0.21663000       0.20832900       0.42355300
   176  C          0.78337000       0.70832900       0.07644700
   177  H          0.84321800       0.77351200       0.61093400
   178  H          0.15678200       0.27351200       0.88906600
   179  H          0.15678200       0.22648800       0.38906600
   180  H          0.84321800       0.72648800       0.11093400
   181  C          0.80797000       0.78837100       0.48740600
   182  C          0.19203000       0.28837100       0.01259400
   183  C          0.19203000       0.21162900       0.51259400
   184  C          0.80797000       0.71162900       0.98740600
   185  H          0.88649500       0.76828700       0.45801800
   186  H          0.11350500       0.26828700       0.04198200
   187  H          0.11350500       0.23171300       0.54198200
   188  H          0.88649500       0.73171300       0.95801800
   189  C          0.58597000       0.84809110       0.57122700
   190  C          0.41403000       0.34809110       0.92877300
   191  C          0.41403000       0.15190890       0.42877300
   192  C          0.58597000       0.65190890       0.07122700
   193  H          0.51529900       0.86869500       0.60141000
   194  H          0.48470100       0.36869500       0.89859000
   195  H          0.48470100       0.13130500       0.39859000
   196  H          0.51529900       0.63130500       0.10141000
   197  C          0.61117000       0.84379100       0.47830700
   198  C          0.38883000       0.34379100       0.02169300
   199  C          0.38883000       0.15620900       0.52169300
   200  C          0.61117000       0.65620900       0.97830700
   201  H          0.55619500       0.86129000       0.44341400
   202  H          0.44380500       0.36129000       0.05658600
   203  H          0.44380500       0.13871000       0.55658600
   204  H          0.55619500       0.63871000       0.94341400
   205  C          0.49367000       0.87394100       0.52100700
   206  C          0.50633000       0.37394100       0.97899300
   207  C          0.50633000       0.12605900       0.47899300
   208  C          0.49367000       0.62605900       0.02100700
   209  C          0.28417000       0.92958100       0.51283700
   210  C          0.71583000       0.42958100       0.98716300
   211  C          0.71583000       0.07041900       0.48716300
   212  C          0.28417000       0.57041900       0.01283700
   213  C          0.10257000       0.97433100       0.50462700
   214  C          0.89743000       0.47433100      -0.00462700
   215  C          0.89743000       0.02566900       0.49537300
   216  C          0.10257000       0.52566900       0.00462700
