data_MABTIW
_symmetry_space_group_name_H-M    'P1'
_symmetry_Int_Tables_number       1
loop_
_symmetry_equiv_pos_site_id
_symmetry_equiv_pos_as_xyz
1 x,y,z
_cell_length_a                   5.39142
_cell_length_b                   15.58397
_cell_length_c                   25.023911
_cell_angle_alpha                90.0
_cell_angle_beta                 90.4292
_cell_angle_gamma                90.0
loop_
_atom_site_label
_atom_site_type_symbol
_atom_site_fract_x
_atom_site_fract_y
_atom_site_fract_z
     1  O          0.95452000       0.30465800       0.55955500
     2  O          0.54548000       0.80465800       0.94044500
     3  O          0.04548000       0.69534200       0.44044500
     4  O          0.45452000       0.19534200       0.05955500
     5  H          0.07230000       0.25647000       0.55835000
     6  H          0.42770000       0.75647000       0.94165000
     7  H          0.92770000       0.74353000       0.44165000
     8  H          0.57230000       0.24353000       0.05835000
     9  O          0.30602000       0.95628200       0.96610500
    10  O          0.19398000       0.45628200       0.53389500
    11  O          0.69398000       0.04371800       0.03389500
    12  O          0.80602000       0.54371800       0.46610500
    13  H          0.42330000       0.91223000       0.95374000
    14  H          0.07670000       0.41223000       0.54626000
    15  H          0.57670000       0.08777000       0.04626000
    16  H          0.92330000       0.58777000       0.45374000
    17  O          0.21188000       0.57377800       0.80127500
    18  O          0.28812000       0.07377800       0.69872500
    19  O          0.78812000       0.42622200       0.19872500
    20  O          0.71188000       0.92622200       0.30127500
    21  H          0.20380000       0.61239000       0.77024000
    22  H          0.29620000       0.11239000       0.72976000
    23  H          0.79620000       0.38761000       0.22976000
    24  H          0.70380000       0.88761000       0.27024000
    25  N          0.33983000       0.21579900       0.77018600
    26  N          0.16017000       0.71579900       0.72981400
    27  N          0.66017000       0.78420100       0.22981400
    28  N          0.83983000       0.28420100       0.27018600
    29  N          0.03213000       0.28187900       0.82431600
    30  N          0.46787000       0.78187900       0.67568400
    31  N          0.96787000       0.71812100       0.17568400
    32  N          0.53213000       0.21812100       0.32431600
    33  N          0.14923000       0.34552900       0.74171600
    34  N          0.35077000       0.84552900       0.75828400
    35  N          0.85077000       0.65447100       0.25828400
    36  N          0.64923000       0.15447100       0.24171600
    37  C          0.75287000       0.46047110       0.74835700
    38  C          0.74713000       0.96047110       0.75164300
    39  C          0.24713000       0.53952890       0.25164300
    40  C          0.25287000       0.03952890       0.24835700
    41  H          0.85512100       0.45985000       0.71760000
    42  H          0.64487900       0.95985000       0.78240000
    43  H          0.14487900       0.54015000       0.28240000
    44  H          0.35512100       0.04015000       0.21760000
    45  C          0.31553000       0.28266100       0.73621700
    46  C          0.18447000       0.78266100       0.76378300
    47  C          0.68447000       0.71733900       0.26378300
    48  C          0.81553000       0.21733900       0.23621700
    49  C          0.00543000       0.34046110       0.78508700
    50  C          0.49457000       0.84046110       0.71491300
    51  C         -0.00543000       0.65953890       0.21491300
    52  C          0.50543000       0.15953890       0.28508700
    53  C          0.20213000       0.22095110       0.81467700
    54  C          0.29787000       0.72095110       0.68532300
    55  C          0.79787000       0.77904890       0.18532300
    56  C          0.70213000       0.27904890       0.31467700
    57  C          0.48153000       0.28545100       0.68965700
    58  C          0.01847000       0.78545100       0.81034300
    59  C          0.51847000       0.71454900       0.31034300
    60  C         -0.01847000       0.21454900       0.18965700
    61  C          0.68703000       0.23095110       0.68614700
    62  C          0.81297000       0.73095110       0.81385300
    63  C          0.31297000       0.76904890       0.31385300
    64  C          0.18703000       0.26904890       0.18614700
    65  H          0.71694800       0.18997800       0.71354800
    66  H          0.78305200       0.68997800       0.78645200
    67  H          0.28305200       0.81002200       0.28645200
    68  H          0.21694800       0.31002200       0.21354800
    69  C          0.84763000       0.23591110       0.64319700
    70  C          0.65237000       0.73591110       0.85680300
    71  C          0.15237000       0.76408890       0.35680300
    72  C          0.34763000       0.26408890       0.14319700
    73  H         -0.01308800       0.19871400       0.64131500
    74  H          0.51308800       0.69871400       0.85868500
    75  H          0.01308800       0.80128600       0.35868500
    76  H          0.48691200       0.30128600       0.14131500
    77  C          0.80383000       0.29561110       0.60287700
    78  C          0.69617000       0.79561110       0.89712300
    79  C          0.19617000       0.70438890       0.39712300
    80  C          0.30383000       0.20438890       0.10287700
    81  C          0.59883000       0.34953110       0.60551700
    82  C          0.90117000       0.84953110       0.89448300
    83  C          0.40117000       0.65046890       0.39448300
    84  C          0.09883000       0.15046890       0.10551700
    85  H          0.56734700       0.38953700       0.57762900
    86  H          0.93265300       0.88953700       0.92237100
    87  H          0.43265300       0.61046300       0.42237100
    88  H          0.06734700       0.11046300       0.07762900
    89  C          0.44023000       0.34499110       0.64882700
    90  C          0.05977000       0.84499110       0.85117300
    91  C          0.55977000       0.65500890       0.35117300
    92  C          0.94023000       0.15500890       0.14882700
    93  H          0.30216500       0.38272300       0.65072100
    94  H          0.19783500       0.88272300       0.84927900
    95  H          0.69783500       0.61727700       0.34927900
    96  H          0.80216500       0.11727700       0.15072100
    97  C          0.23723000       0.15308110       0.85513700
    98  C          0.26277000       0.65308110       0.64486300
    99  C          0.76277000       0.84691890       0.14486300
   100  C          0.73723000       0.34691890       0.35513700
   101  C          0.06543000       0.14203110       0.89604700
   102  C          0.43457000       0.64203110       0.60395300
   103  C          0.93457000       0.85796890       0.10395300
   104  C          0.56543000       0.35796890       0.39604700
   105  H          0.92761600       0.17980700       0.89835600
   106  H          0.57238400       0.67980700       0.60164400
   107  H          0.07238400       0.82019300       0.10164400
   108  H          0.42761600       0.32019300       0.39835600
   109  C          0.09253000       0.07699110       0.93325700
   110  C          0.40747000       0.57699110       0.56674300
   111  C          0.90747000       0.92300890       0.06674300
   112  C          0.59253000       0.42300890       0.43325700
   113  H         -0.02479300       0.07047900       0.96109300
   114  H          0.52479300       0.57047900       0.53890700
   115  H          0.02479300       0.92952100       0.03890700
   116  H          0.47520700       0.42952100       0.46109300
   117  C          0.29363000       0.02105110       0.92953700
   118  C          0.20637000       0.52105110       0.57046300
   119  C          0.70637000       0.97894890       0.07046300
   120  C          0.79363000       0.47894890       0.42953700
   121  C          0.46813000       0.03183110       0.88949700
   122  C          0.03187000       0.53183110       0.61050300
   123  C          0.53187000       0.96816890       0.11050300
   124  C          0.96813000       0.46816890       0.38949700
   125  H          0.60665500      -0.00565300       0.88741900
   126  H          0.89334500       0.49434700       0.61258100
   127  H          0.39334500       0.00565300       0.11258100
   128  H          0.10665500       0.50565300       0.38741900
   129  C          0.43933000       0.09729110       0.85266700
   130  C          0.06067000       0.59729110       0.64733300
   131  C          0.56067000       0.90270890       0.14733300
   132  C          0.93933000       0.40270890       0.35266700
   133  H          0.55871100       0.10437900       0.82529400
   134  H          0.94128900       0.60437900       0.67470600
   135  H          0.44128900       0.89562100       0.17470600
   136  H          0.05871100       0.39562100       0.32529400
   137  C          0.80197000       0.40343100       0.79001700
   138  C          0.69803000       0.90343100       0.70998300
   139  C          0.19803000       0.59656900       0.20998300
   140  C          0.30197000       0.09656900       0.29001700
   141  C          0.55787000       0.51792110       0.75097700
   142  C          0.94213000       0.01792110       0.74902300
   143  C          0.44213000       0.48207890       0.24902300
   144  C          0.05787000       0.98207890       0.25097700
   145  H          0.52616300       0.55615600       0.72215600
   146  H          0.97383700       0.05615600       0.77784400
   147  H          0.47383700       0.44384400       0.27784400
   148  H          0.02616300       0.94384400       0.22215600
   149  C          0.40847000       0.51943110       0.79602700
   150  C          0.09153000       0.01943110       0.70397300
   151  C          0.59153000       0.48056890       0.20397300
   152  C          0.90847000       0.98056890       0.29602700
   153  C          0.45607000       0.46346110       0.83820700
   154  C          0.04393000       0.96346110       0.66179300
   155  C          0.54393000       0.53653890       0.16179300
   156  C          0.95607000       0.03653890       0.33820700
   157  H          0.35541200       0.46493600       0.86918600
   158  H          0.14458800       0.96493600       0.63081400
   159  H          0.64458800       0.53506400       0.13081400
   160  H          0.85541200       0.03506400       0.36918600
   161  C          0.65017000       0.40564110       0.83494700
   162  C          0.84983000       0.90564110       0.66505300
   163  C          0.34983000       0.59435890       0.16505300
   164  C          0.15017000       0.09435890       0.33494700
   165  H          0.68050300       0.36699400       0.86361000
   166  H          0.81949700       0.86699400       0.63639000
   167  H          0.31949700       0.63300600       0.13639000
   168  H          0.18050300       0.13300600       0.36361000
   169  N          0.30883000       0.18572900       0.54186600
   170  N          0.19117000       0.68572900       0.95813400
   171  N          0.69117000       0.81427100       0.45813400
   172  N          0.80883000       0.31427100       0.04186600
   173  C          0.40263000       0.13014120       0.57694700
   174  C          0.09737000       0.63014120       0.92305300
   175  C          0.59737000       0.86985880       0.42305300
   176  C          0.90263000       0.36985880       0.07694700
   177  H          0.32991500       0.12734700       0.61136000
   178  H          0.17008500       0.62734700       0.88864000
   179  H          0.67008500       0.87265300       0.38864000
   180  H          0.82991500       0.37265300       0.11136000
   181  C          0.59963000       0.07626120       0.56628800
   182  C          0.90037000       0.57626120       0.93371200
   183  C          0.40037000       0.92373880       0.43371200
   184  C          0.09963000       0.42373880       0.06628800
   185  H          0.65841800       0.03741600       0.59274200
   186  H          0.84158200       0.53741600       0.90725800
   187  H          0.34158200       0.96258400       0.40725800
   188  H          0.15841800       0.46258400       0.09274200
   189  C          0.71063000       0.07953110       0.51647800
   190  C          0.78937000       0.57953110       0.98352200
   191  C          0.28937000       0.92046890       0.48352200
   192  C          0.21063000       0.42046890       0.01647800
   193  C          0.61384000       0.13784130       0.47939800
   194  C          0.88616000       0.63784130       0.02060200
   195  C          0.38616000       0.86215870       0.52060200
   196  C          0.11384000       0.36215870       0.97939800
   197  H          0.68391300       0.14263000       0.44480200
   198  H          0.81608700       0.64263000       0.05519800
   199  H          0.31608700       0.85737000       0.55519800
   200  H          0.18391300       0.35737000       0.94480200
   201  C          0.41534000       0.18832130       0.49371800
   202  C          0.08466000       0.68832130       0.00628200
   203  C          0.58466000       0.81167870       0.50628200
   204  C          0.91534000       0.31167870       0.99371800
   205  H          0.35022700       0.22720600       0.46794600
   206  H          0.14977300       0.72720600       0.03205400
   207  H          0.64977300       0.77279400       0.53205400
   208  H          0.85022700       0.27279400       0.96794600
   209  C          0.91523000       0.02393120       0.50435800
   210  C          0.58477000       0.52393120      -0.00435800
   211  C          0.08477000       0.97606880       0.49564200
   212  C          0.41523000       0.47606880       0.00435800
