data_MABVUK
_symmetry_space_group_name_H-M    'P1'
_symmetry_Int_Tables_number       1
loop_
_symmetry_equiv_pos_site_id
_symmetry_equiv_pos_as_xyz
1 x,y,z
_cell_length_a                   5.7554
_cell_length_b                   15.54511
_cell_length_c                   25.29819
_cell_angle_alpha                90.0
_cell_angle_beta                 90.0
_cell_angle_gamma                90.0
loop_
_atom_site_label
_atom_site_type_symbol
_atom_site_fract_x
_atom_site_fract_y
_atom_site_fract_z
     1  O          0.68051100       0.61423000       0.43039190
     2  O          0.81948900       0.38577000       0.93039190
     3  O          0.31948900       0.11423000       0.06960810
     4  O          0.18051100       0.88577000       0.56960810
     5  H          0.81770000       0.57740000       0.42531700
     6  H          0.68230000       0.42260000       0.92531700
     7  H          0.18230000       0.07740000       0.07468300
     8  H          0.31770000       0.92260000       0.57468300
     9  O          0.08489000       0.25883000       0.03446190
    10  O          0.41511000       0.74117000       0.53446190
    11  O          0.91511000       0.75883000       0.46553810
    12  O          0.58489000       0.24117000       0.96553810
    13  H          0.20311000       0.21730000       0.04611500
    14  H          0.29689000       0.78270000       0.54611500
    15  H          0.79689000       0.71730000       0.45388500
    16  H          0.70311000       0.28270000       0.95388500
    17  O         -0.00261000       0.86343000       0.19812000
    18  O          0.50261000       0.13657000       0.69812000
    19  O          0.00261000       0.36343000       0.30188000
    20  O          0.49739000       0.63657000       0.80188000
    21  H         -0.00290000       0.90640000       0.22720000
    22  H          0.50290000       0.09360000       0.72720000
    23  H          0.00290000       0.40640000       0.27280000
    24  H          0.49710000       0.59360000       0.77280000
    25  N          0.06851100       0.51184000       0.23052000
    26  N          0.43148900       0.48816000       0.73052000
    27  N          0.93148900       0.01184000       0.26948000
    28  N          0.56851100       0.98816000       0.76948000
    29  N          0.88869000       0.64173000       0.25682000
    30  N          0.61131000       0.35827000       0.75682000
    31  N          0.11131000       0.14173000       0.24318000
    32  N          0.38869000       0.85827000       0.74318000
    33  N          0.76738900       0.57254000       0.17752000
    34  N          0.73261100       0.42746000       0.67752000
    35  N          0.23261100       0.07254000       0.32248000
    36  N          0.26738900       0.92746000       0.82248000
    37  C          0.04641300       0.57994000       0.26303000
    38  C          0.45358700       0.42006000       0.76303000
    39  C          0.95358700       0.07994000       0.23697000
    40  C          0.54641300       0.92006000       0.73697000
    41  C          0.74628700       0.63455000       0.21503000
    42  C          0.75371300       0.36545000       0.71503000
    43  C          0.25371300       0.13455000       0.28497000
    44  C          0.24628700       0.86545000       0.78497000
    45  C          0.93118700       0.51394000       0.18703000
    46  C          0.56881300       0.48606000       0.68703000
    47  C          0.06881300       0.01394000       0.31297000
    48  C          0.43118700       0.98606000       0.81297000
    49  C          0.20781300       0.58594000       0.30703000
    50  C          0.29218700       0.41406000       0.80703000
    51  C          0.79218700       0.08594000       0.19297000
    52  C          0.70781300       0.91406000       0.69297000
    53  C          0.40271300       0.53275000       0.31033000
    54  C          0.09728700       0.46725000       0.81033000
    55  C          0.59728700       0.03275000       0.18967000
    56  C          0.90271300       0.96725000       0.68967000
    57  H          0.42568800       0.49100200       0.28448300
    58  H          0.07431200       0.50899800       0.78448300
    59  H          0.57431200       0.99100200       0.21551700
    60  H          0.92568800       0.00899800       0.71551700
    61  C          0.56211300       0.53995000       0.35083000
    62  C          0.93788700       0.46005000       0.85083000
    63  C          0.43788700       0.03995000       0.14917000
    64  C          0.06211300       0.96005000       0.64917000
    65  H          0.69043900       0.50363400       0.35226500
    66  H          0.80956100       0.49636600       0.85226500
    67  H          0.30956100       0.00363400       0.14773500
    68  H          0.19043900      -0.00363400       0.64773500
    69  C          0.52771300       0.60224000       0.38933000
    70  C          0.97228700       0.39776000       0.88933000
    71  C          0.47228700       0.10224000       0.11067000
    72  C          0.02771300       0.89776000       0.61067000
    73  C          0.33581400       0.65504000       0.38713000
    74  C          0.16418600       0.34496000       0.88713000
    75  C          0.66418600       0.15504000       0.11287000
    76  C          0.83581400       0.84496000       0.61287000
    77  H          0.31281100       0.69625600       0.41316100
    78  H          0.18718900       0.30374400       0.91316100
    79  H          0.68718900       0.19625600       0.08683900
    80  H          0.81281100       0.80374400       0.58683900
    81  C          0.17821500       0.64714000       0.34673000
    82  C          0.32178500       0.35286000       0.84673000
    83  C          0.82178500       0.14714000       0.15327000
    84  C          0.67821500       0.85286000       0.65327000
    85  H          0.04943300       0.68325800       0.34580700
    86  H          0.45056700       0.31674200       0.84580700
    87  H          0.95056700       0.18325800       0.15419300
    88  H          0.54943300       0.81674200       0.65419300
    89  C          0.55748600       0.69624000       0.20943000
    90  C          0.94251400       0.30376000       0.70943000
    91  C          0.44251400       0.19624000       0.29057000
    92  C          0.05748600       0.80376000       0.79057000
    93  C          0.51338500       0.75544000       0.24923000
    94  C         -0.01338500       0.24456000       0.74923000
    95  C          0.48661500       0.25544000       0.25077000
    96  C          0.01338500       0.74456000       0.75077000
    97  H          0.61056700       0.75658500       0.27857100
    98  H          0.88943300       0.24341500       0.77857100
    99  H          0.38943300       0.25658500       0.22142900
   100  H          0.11056700       0.74341500       0.72142900
   101  C          0.33278400       0.81204000       0.24683000
   102  C          0.16721600       0.18796000       0.74683000
   103  C          0.66721600       0.31204000       0.25317000
   104  C          0.83278400       0.68796000       0.75317000
   105  H          0.30890500       0.85120700       0.27398400
   106  H          0.19109500       0.14879300       0.77398400
   107  H          0.69109500       0.35120700       0.22601600
   108  H          0.80890500       0.64879300       0.72601600
   109  C          0.18498500       0.81074000       0.20353000
   110  C          0.31501500       0.18926000       0.70353000
   111  C          0.81501500       0.31074000       0.29647000
   112  C          0.68498500       0.68926000       0.79647000
   113  C          0.22568500       0.75285000       0.16273000
   114  C          0.27431500       0.24715000       0.66273000
   115  C          0.77431500       0.25285000       0.33727000
   116  C          0.72568500       0.74715000       0.83727000
   117  H          0.12955800       0.75230300       0.13318500
   118  H          0.37044200       0.24769700       0.63318500
   119  H          0.87044200       0.25230300       0.36681500
   120  H          0.62955800       0.74769700       0.86681500
   121  C          0.40918600       0.69635000       0.16633000
   122  C          0.09081400       0.30365000       0.66633000
   123  C          0.59081400       0.19635000       0.33367000
   124  C          0.90918600       0.80365000       0.83367000
   125  H          0.43412800       0.65713500       0.13906500
   126  H          0.06587200       0.34286500       0.63906500
   127  H          0.56587200       0.15713500       0.36093500
   128  H          0.93412800       0.84286500       0.86093500
   129  C          0.97038700       0.44614000       0.14773000
   130  C          0.52961300       0.55386000       0.64773000
   131  C          0.02961300       0.94614000       0.35227000
   132  C          0.47038700       0.05386000       0.85227000
   133  C          0.81098500       0.43104000       0.10733000
   134  C          0.68901500       0.56896000       0.60733000
   135  C          0.18901500       0.93104000       0.39267000
   136  C          0.31098500       0.06896000       0.89267000
   137  H          0.67571700       0.46355500       0.10527100
   138  H          0.82428300       0.53644500       0.60527100
   139  H          0.32428300       0.96355500       0.39472900
   140  H          0.17571700       0.03644500       0.89472900
   141  C          0.85328400       0.36835000       0.07053000
   142  C          0.64671600       0.63165000       0.57053000
   143  C          0.14671600       0.86835000       0.42947000
   144  C          0.35328400       0.13165000       0.92947000
   145  H          0.74606300       0.35857700       0.04363700
   146  H          0.75393700       0.64142300       0.54363700
   147  H          0.25393700       0.85857700       0.45636300
   148  H          0.24606300       0.14142300       0.95636300
   149  C          0.05331300       0.31954000       0.07273000
   150  C          0.44668700       0.68046000       0.57273000
   151  C          0.94668700       0.81954000       0.42727000
   152  C          0.55331300       0.18046000       0.92727000
   153  C          0.21271200       0.33365000       0.11203000
   154  C          0.28728800       0.66635000       0.61203000
   155  C          0.78728800       0.83365000       0.38797000
   156  C          0.71271200       0.16635000       0.88797000
   157  H          0.34696600       0.30041600       0.11382400
   158  H          0.15303400       0.69958400       0.61382400
   159  H          0.65303400       0.80041600       0.38617600
   160  H          0.84696600       0.19958400       0.88617600
   161  C          0.17271500       0.39724000       0.14883000
   162  C          0.32728500       0.60276000       0.64883000
   163  C          0.82728500       0.89724000       0.35117000
   164  C          0.67271500       0.10276000       0.85117000
   165  H          0.28315400       0.40771800       0.17487200
   166  H          0.21684600       0.59228200       0.67487200
   167  H          0.71684600       0.90771800       0.32512800
   168  H          0.78315400       0.09228200       0.82512800
   169  I          0.66740130       0.33127500       0.51039400
   170  I          0.83259870       0.66872500       0.01039400
   171  I          0.33259870       0.83127500       0.98960600
   172  I          0.16740130       0.16872500       0.48960600
   173  N          0.02531200       0.50274000       0.44733000
   174  N          0.47468800       0.49726000       0.94733000
   175  N          0.97468800       0.00274000       0.05267000
   176  N          0.52531200      -0.00274000       0.55267000
   177  C          0.12231700       0.51576000       0.49524000
   178  C          0.37768300       0.48424000      -0.00476000
   179  C          0.87768300       0.01576000       0.00476000
   180  C          0.62231700       0.98424000       0.50476000
   181  H          0.06405400       0.55987900       0.51619700
   182  H          0.43594600       0.44012100       0.01619700
   183  H          0.93594600       0.05987900       0.98380300
   184  H          0.56405400       0.94012100       0.48380300
   185  C          0.29761700       0.46866000       0.51424000
   186  C          0.20238300       0.53134000       0.01424000
   187  C          0.70238300       0.96866000       0.98576000
   188  C          0.79761700       0.03134000       0.48576000
   189  H          0.35543200       0.47945400       0.54785700
   190  H          0.14456800       0.52054600       0.04785700
   191  H          0.64456800       0.97945400       0.95214300
   192  H          0.85543200       0.02054600       0.45214300
   193  C          0.39171500       0.40465000       0.48434000
   194  C          0.10828500       0.59535000       0.98434000
   195  C          0.60828500       0.90465000       0.01566000
   196  C          0.89171500       0.09535000       0.51566000
   197  C          0.29711800       0.39125000       0.43524000
   198  C          0.20288200       0.60875000       0.93524000
   199  C          0.70288200       0.89125000       0.06476000
   200  C          0.79711800       0.10875000       0.56476000
   201  H          0.35570000       0.34806800       0.41357400
   202  H          0.14430000       0.65193200       0.91357400
   203  H          0.64430000       0.84806800       0.08642600
   204  H          0.85570000       0.15193200       0.58642600
   205  C          0.11661800       0.44126000       0.41813000
   206  C          0.38338200       0.55874000       0.91813000
   207  C          0.88338200       0.94126000       0.08187000
   208  C          0.61661800       0.05874000       0.58187000
   209  H          0.05598400       0.43146600       0.38455700
   210  H          0.44401600       0.56853400       0.88455700
   211  H          0.94401600       0.93146600       0.11544300
   212  H          0.55598400       0.06853400       0.61544300
