data_MABXUM
_symmetry_space_group_name_H-M    'P1'
_symmetry_Int_Tables_number       1
loop_
_symmetry_equiv_pos_site_id
_symmetry_equiv_pos_as_xyz
1 x,y,z
_cell_length_a                   5.29642
_cell_length_b                   15.56816
_cell_length_c                   25.52001
_cell_angle_alpha                90.0
_cell_angle_beta                 90.5082
_cell_angle_gamma                90.0
loop_
_atom_site_label
_atom_site_type_symbol
_atom_site_fract_x
_atom_site_fract_y
_atom_site_fract_z
     1  O          0.03415170       0.30268600       0.56167400
     2  O          0.46584830       0.80268600       0.93832600
     3  O          0.96584830       0.69731400       0.43832600
     4  O          0.53415170       0.19731400       0.06167400
     5  H          0.91180000       0.25516000       0.56054000
     6  H          0.58820000       0.75516000       0.93946000
     7  H          0.08820000       0.74484000       0.43946000
     8  H          0.41180000       0.24484000       0.06054000
     9  O          0.69812180       0.95708400       0.96414400
    10  O          0.80187820       0.45708400       0.53585600
    11  O          0.30187820       0.04291600       0.03585600
    12  O          0.19812180       0.54291600       0.46414400
    13  H          0.58030000       0.91264000       0.95193000
    14  H          0.91970000       0.41264000       0.54807000
    15  H          0.41970000       0.08736000       0.04807000
    16  H          0.08030000       0.58736000       0.45193000
    17  O          0.80244170       0.57519600       0.80157400
    18  O          0.69755830       0.07519600       0.69842600
    19  O          0.19755830       0.42480400       0.19842600
    20  O          0.30244170       0.92480400       0.30157400
    21  H          0.81420000       0.61158000       0.77023000
    22  H          0.68580000       0.11158000       0.72977000
    23  H          0.18580000       0.38842000       0.22977000
    24  H          0.31420000       0.88842000       0.27023000
    25  N          0.66052000       0.21448700       0.77030400
    26  N          0.83948000       0.71448700       0.72969600
    27  N          0.33948000       0.78551300       0.22969600
    28  N          0.16052000       0.28551300       0.27030400
    29  N         -0.02448000       0.28068700       0.82369500
    30  N          0.52448000       0.78068700       0.67630500
    31  N          0.02448000       0.71931300       0.17630500
    32  N          0.47552000       0.21931300       0.32369500
    33  N          0.85292000       0.34419700       0.74250400
    34  N          0.64708000       0.84419700       0.75749600
    35  N          0.14708000       0.65580300       0.25749600
    36  N          0.35292000       0.15580300       0.24250400
    37  C          0.68342000       0.28127800       0.73688500
    38  C          0.81658000       0.78127800       0.76311500
    39  C          0.31658000       0.71872200       0.26311500
    40  C          0.18342000       0.21872200       0.23688500
    41  C          0.80232000       0.21972900       0.81418500
    42  C          0.69768000       0.71972900       0.68581500
    43  C          0.19768000       0.78027100       0.18581500
    44  C          0.30232000       0.28027100       0.31418500
    45  C          0.00102000       0.33918900       0.78527500
    46  C          0.49898000       0.83918900       0.71472500
    47  C         -0.00102000       0.66081100       0.21472500
    48  C          0.50102000       0.16081100       0.28527500
    49  C          0.51412000       0.28400800       0.69084500
    50  C         -0.01412000       0.78400800       0.80915500
    51  C          0.48588000       0.71599200       0.30915500
    52  C          0.01412000       0.21599200       0.19084500
    53  C          0.55662000       0.34346900       0.65072500
    54  C          0.94338000       0.84346900       0.84927500
    55  C          0.44338000       0.65653100       0.34927500
    56  C          0.05662000       0.15653100       0.15072500
    57  H          0.69750200       0.38108100       0.65300800
    58  H          0.80249800       0.88108100       0.84699200
    59  H          0.30249800       0.61891900       0.34699200
    60  H          0.19750200       0.11891900       0.15300800
    61  C          0.39592000       0.34808900       0.60779500
    62  C          0.10408000       0.84808900       0.89220500
    63  C          0.60408000       0.65191100       0.39220500
    64  C          0.89592000       0.15191100       0.10779500
    65  H          0.42791900       0.38827200       0.58064000
    66  H          0.07208100       0.88827200       0.91936000
    67  H          0.57208100       0.61172800       0.41936000
    68  H          0.92791900       0.11172800       0.08064000
    69  C          0.18692000       0.29379900       0.60431500
    70  C          0.31308000       0.79379900       0.89568500
    71  C          0.81308000       0.70620100       0.39568500
    72  C          0.68692000       0.20620100       0.10431500
    73  C          0.14192000       0.23398800       0.64399500
    74  C          0.35808000       0.73398800       0.85600500
    75  C          0.85808000       0.76601200       0.35600500
    76  C          0.64192000       0.26601200       0.14399500
    77  H          0.00026100       0.19669300       0.64170700
    78  H          0.49973900       0.69669300       0.85829300
    79  H         -0.00026100       0.80330700       0.35829300
    80  H          0.50026100       0.30330700       0.14170700
    81  C          0.30482000       0.22932900       0.68665500
    82  C          0.19518000       0.72932900       0.81334500
    83  C          0.69518000       0.77067100       0.31334500
    84  C          0.80482000       0.27067100       0.18665500
    85  H          0.27419300       0.18842200       0.71348300
    86  H          0.22580700       0.68842200       0.78651700
    87  H          0.72580700       0.81157800       0.28651700
    88  H          0.77419300       0.31157800       0.21348300
    89  C          0.76742000       0.15237900       0.85408500
    90  C          0.73258000       0.65237900       0.64591500
    91  C          0.23258000       0.84762100       0.14591500
    92  C          0.26742000       0.34762100       0.35408500
    93  C          0.56363000       0.09533900       0.85094500
    94  C          0.93637000       0.59533900       0.64905500
    95  C          0.43637000       0.90466100       0.14905500
    96  C          0.06363000       0.40466100       0.35094500
    97  H          0.44293500       0.10135200       0.82342900
    98  H          0.05706500       0.60135200       0.67657100
    99  H          0.55706500       0.89864800       0.17657100
   100  H          0.94293500       0.39864800       0.32342900
   101  C          0.53573000       0.03028900       0.88737600
   102  C          0.96427000       0.53028900       0.61262400
   103  C          0.46427000       0.96971100       0.11262400
   104  C          0.03573000       0.46971100       0.38737600
   105  H          0.39655400      -0.00804800       0.88471800
   106  H          0.10344600       0.49195200       0.61528200
   107  H          0.60344600       0.00804800       0.11528200
   108  H          0.89655400       0.50804800       0.38471800
   109  C          0.71102000       0.02096900       0.92785500
   110  C          0.78898000       0.52096900       0.57214500
   111  C          0.28898000       0.97903100       0.07214500
   112  C          0.21102000       0.47903100       0.42785500
   113  C          0.91273000       0.07814900       0.93215500
   114  C          0.58727000       0.57814900       0.56784500
   115  C          0.08727000       0.92185100       0.06784500
   116  C          0.41273000       0.42185100       0.43215500
   117  H          0.03070800       0.07287700       0.96021800
   118  H          0.46929200       0.57287700       0.53978200
   119  H          0.96929200       0.92712300       0.03978200
   120  H          0.53070800       0.42712300       0.46021800
   121  C          0.94003000       0.14256900       0.89533600
   122  C          0.55997000       0.64256900       0.60466400
   123  C          0.05997000       0.85743100       0.10466400
   124  C          0.44003000       0.35743100       0.39533600
   125  H          0.07902800       0.18090200       0.89814500
   126  H          0.42097200       0.68090200       0.60185500
   127  H          0.92097200       0.81909800       0.10185500
   128  H          0.57902800       0.31909800       0.39814500
   129  C          0.20692000       0.40227800       0.79015500
   130  C          0.29308000       0.90227800       0.70984500
   131  C          0.79308000       0.59772200       0.20984500
   132  C          0.70692000       0.09772200       0.29015500
   133  C          0.25143000       0.46022900       0.74942500
   134  C          0.24857000       0.96022900       0.75057500
   135  C          0.74857000       0.53977100       0.25057500
   136  C          0.75143000       0.03977100       0.24942500
   137  H          0.14455800       0.45955500       0.71932500
   138  H          0.35544200       0.95955500       0.78067500
   139  H          0.85544200       0.54044500       0.28067500
   140  H          0.64455800       0.04044500       0.21932500
   141  C          0.44842000       0.51860900       0.75216600
   142  C          0.05158000       0.01860900       0.74783400
   143  C          0.55158000       0.48139100       0.24783400
   144  C          0.94842000       0.98139100       0.25216600
   145  H          0.47634800       0.55748200       0.72411700
   146  H          0.02365200       0.05748200       0.77588300
   147  H          0.52365200       0.44251800       0.27588300
   148  H         -0.02365200       0.94251800       0.22411700
   149  C          0.60472000       0.52000900       0.79608500
   150  C          0.89528000       0.02000900       0.70391500
   151  C          0.39528000       0.47999100       0.20391500
   152  C          0.10472000       0.97999100       0.29608500
   153  C          0.56383000       0.46253900       0.83713500
   154  C          0.93617000       0.96253900       0.66286500
   155  C          0.43617000       0.53746100       0.16286500
   156  C          0.06383000       0.03746100       0.33713500
   157  H          0.67068900       0.46355400       0.86721100
   158  H          0.82931100       0.96355400       0.63278900
   159  H          0.32931100       0.53644600       0.13278900
   160  H          0.17068900       0.03644600       0.36721100
   161  C          0.36723000       0.40403900       0.83400600
   162  C          0.13277000       0.90403900       0.66599400
   163  C          0.63277000       0.59596100       0.16599400
   164  C          0.86723000       0.09596100       0.33400600
   165  H          0.34090600       0.36472400       0.86189900
   166  H          0.15909400       0.86472400       0.63810100
   167  H          0.65909400       0.63527600       0.13810100
   168  H          0.84090600       0.13527600       0.36189900
   169  N          0.67698000       0.18496700       0.54280500
   170  N          0.82302000       0.68496700       0.95719500
   171  N          0.32302000       0.81503300       0.45719500
   172  N          0.17698000       0.31503300       0.04280500
   173  C          0.58327000       0.19253100       0.49416600
   174  C          0.91673000       0.69253100       0.00583400
   175  C          0.41673000       0.80746900       0.50583400
   176  C          0.08327000       0.30746900       0.99416600
   177  H          0.65922100       0.23304500       0.47134600
   178  H          0.84077900       0.73304500       0.02865400
   179  H          0.34077900       0.76695500       0.52865400
   180  H          0.15922100       0.26695500       0.97134600
   181  C          0.38237000       0.14471100       0.47520600
   182  C          0.11763000       0.64471100       0.02479400
   183  C          0.61763000       0.85528900       0.52479400
   184  C          0.88237000       0.35528900       0.97520600
   185  H          0.32287300       0.15302400       0.44034000
   186  H          0.17712700       0.65302400       0.05966000
   187  H          0.67712700       0.84697600       0.55966000
   188  H          0.82287300       0.34697600       0.94034000
   189  C          0.26717000       0.08416900       0.50752600
   190  C          0.23283000       0.58416900       0.99247400
   191  C          0.73283000       0.91583100       0.49247400
   192  C          0.76717000       0.41583100       0.00752600
   193  C          0.36557000       0.07633900       0.55830500
   194  C          0.13443000       0.57633900       0.94169500
   195  C          0.63443000       0.92366100       0.44169500
   196  C          0.86557000       0.42366100       0.05830500
   197  H          0.29471400       0.03607100       0.58196100
   198  H          0.20528600       0.53607100       0.91803900
   199  H          0.70528600       0.96392900       0.41803900
   200  H          0.79471400       0.46392900       0.08196100
   201  C          0.56597000       0.12718900       0.57404600
   202  C          0.93403000       0.62718900       0.92595400
   203  C          0.43403000       0.87281100       0.42595400
   204  C          0.06597000       0.37281100       0.07404600
   205  H          0.62863100       0.12088600       0.60882800
   206  H          0.87136900       0.62088600       0.89117200
   207  H          0.37136900       0.87911400       0.39117200
   208  H          0.12863100       0.37911400       0.10882800
   209  C          0.05427000       0.03285900       0.48775600
   210  C          0.44573000       0.53285900       0.01224400
   211  C          0.94573000       0.96714100       0.51224400
   212  C          0.55427000       0.46714100       0.98775600
   213  H         -0.01237700       0.04792100       0.45430900
   214  H          0.51237700       0.54792100       0.04569100
   215  H          0.01237700       0.95207900       0.54569100
   216  H          0.48762300       0.45207900       0.95430900
