data_MABYEX
_symmetry_space_group_name_H-M    'P1'
_symmetry_Int_Tables_number       1
loop_
_symmetry_equiv_pos_site_id
_symmetry_equiv_pos_as_xyz
1 x,y,z
_cell_length_a                   5.52244
_cell_length_b                   15.622012
_cell_length_c                   25.2192
_cell_angle_alpha                90.0
_cell_angle_beta                 90.0
_cell_angle_gamma                90.0
loop_
_atom_site_label
_atom_site_type_symbol
_atom_site_fract_x
_atom_site_fract_y
_atom_site_fract_z
     1  O          0.30146000       0.39274180       0.56432100
     2  O          0.19854000       0.60725820       0.06432100
     3  O          0.69854000       0.89274180       0.93567900
     4  O          0.80146000       0.10725820       0.43567900
     5  H          0.16850000       0.43420000       0.56691100
     6  H          0.33150000       0.56580000       0.06691100
     7  H          0.83150000       0.93420000       0.93308900
     8  H          0.66850000       0.06580000       0.43308900
     9  O          0.93135000       0.74438180       0.96637110
    10  O          0.56865000       0.25561820       0.46637110
    11  O          0.06865000       0.24438180       0.53362890
    12  O          0.43135000       0.75561820       0.03362890
    13  H          0.80870000       0.78611900       0.95559000
    14  H          0.69130000       0.21388100       0.45559000
    15  H          0.19130000       0.28611900       0.54441000
    16  H          0.30870000       0.71388100       0.04441000
    17  O          0.02726000       0.13403190       0.80339110
    18  O          0.47274000       0.86596810       0.30339110
    19  O          0.97274000       0.63403190       0.69660890
    20  O          0.52726000       0.36596810       0.19660890
    21  H          0.03960000       0.09720000       0.77209000
    22  H          0.46040000       0.90280000       0.27209000
    23  H          0.96040000       0.59720000       0.72791000
    24  H          0.53960000       0.40280000       0.22791000
    25  N          0.23296000       0.42742000       0.82257130
    26  N          0.26704000       0.57258000       0.32257130
    27  N          0.76704000       0.92742000       0.67742870
    28  N          0.73296000       0.07258000       0.17742870
    29  N          0.10766000       0.35912000       0.74257130
    30  N          0.39234000       0.64088000       0.24257130
    31  N          0.89234000       0.85912000       0.75742870
    32  N          0.60766000       0.14088000       0.25742870
    33  N          0.92726000       0.49062000       0.76857130
    34  N          0.57274000       0.50938000       0.26857130
    35  N          0.07274000       0.99062000       0.73142870
    36  N          0.42726000       0.00938000       0.23142870
    37  C          0.06538000       0.48763000       0.81268150
    38  C          0.43462000       0.51237000       0.31268150
    39  C          0.93462000       0.98763000       0.68731850
    40  C          0.56538000       0.01237000       0.18731850
    41  C          0.94687000       0.42222000       0.73604150
    42  C          0.55313000       0.57778000       0.23604150
    43  C          0.05313000       0.92222000       0.76395850
    44  C          0.44687000       0.07778000       0.26395850
    45  C          0.25377000       0.36612000       0.78485150
    46  C          0.24623000       0.63388000       0.28485150
    47  C          0.74623000       0.86612000       0.71514850
    48  C          0.75377000       0.13388000       0.21514850
    49  C          0.77898000       0.41732000       0.69062150
    50  C          0.72102000       0.58268000       0.19062150
    51  C          0.22102000       0.91732000       0.80937850
    52  C          0.27898000       0.08268000       0.30937850
    53  C          0.57848000       0.47153000       0.68739160
    54  C          0.92152000       0.52847000       0.18739160
    55  C          0.42152000       0.97153000       0.81260840
    56  C          0.07848000       0.02847000       0.31260840
    57  H          0.55315700       0.51375700       0.71388800
    58  H          0.94684300       0.48624300       0.21388800
    59  H          0.44684300       0.01375700       0.78611200
    60  H          0.05315700       0.98624300       0.28611200
    61  C          0.41578000       0.46393000       0.64565160
    62  C          0.08422000       0.53607000       0.14565160
    63  C          0.58422000       0.96393000       0.85434840
    64  C          0.91578000       0.03607000       0.35434840
    65  H          0.27776200       0.50018300       0.64404400
    66  H          0.22223800       0.49981700       0.14404400
    67  H          0.72223800       0.00018300       0.85595600
    68  H          0.77776200      -0.00018300       0.35595600
    69  C          0.45487000       0.40343000       0.60629150
    70  C          0.04513000       0.59657000       0.10629150
    71  C          0.54513000       0.90343000       0.89370850
    72  C          0.95487000       0.09657000       0.39370850
    73  C          0.65788000       0.35022000       0.60843150
    74  C          0.84212000       0.64978000       0.10843150
    75  C          0.34212000       0.85022000       0.89156850
    76  C          0.15788000       0.14978000       0.39156850
    77  H          0.68625900       0.30977200       0.58101500
    78  H          0.81374100       0.69022800       0.08101500
    79  H          0.31374100       0.80977200       0.91898500
    80  H          0.18625900       0.19022800       0.41898500
    81  C          0.81748000       0.35662000       0.65051150
    82  C          0.68252000       0.64338000       0.15051150
    83  C          0.18252000       0.85662000       0.84948850
    84  C          0.31748000       0.14338000       0.34948850
    85  H          0.95382500       0.31969100       0.65225500
    86  H          0.54617500       0.68030900       0.15225500
    87  H          0.04617500       0.81969100       0.84774500
    88  H          0.45382500       0.18030900       0.34774500
    89  C          0.02908000       0.55562000       0.85226150
    90  C          0.47092000       0.44438000       0.35226150
    91  C          0.97092000       0.05562000       0.64773850
    92  C          0.52908000       0.94438000       0.14773850
    93  C          0.82398000       0.60733000       0.85067160
    94  C          0.67602000       0.39267000       0.35067160
    95  C          0.17602000       0.10733000       0.64932840
    96  C          0.32398000       0.89267000       0.14932840
    97  H          0.70752100       0.59906300       0.82341400
    98  H          0.79247900       0.40093700       0.32341400
    99  H          0.29247900       0.09906300       0.67658600
   100  H          0.20752100       0.90093700       0.17658600
   101  C          0.78698000       0.67093000       0.88834150
   102  C          0.71302000       0.32907000       0.38834150
   103  C          0.21302000       0.17093000       0.61165850
   104  C          0.28698000       0.82907000       0.11165850
   105  H          0.64542000       0.70542400       0.88689700
   106  H          0.85458000       0.29457600       0.38689700
   107  H          0.35458000       0.20542400       0.61310300
   108  H          0.14542000       0.79457600       0.11310300
   109  C          0.95638000       0.68383000       0.92794150
   110  C          0.54362000       0.31617000       0.42794150
   111  C          0.04362000       0.18383000       0.57205850
   112  C          0.45638000       0.81617000       0.07205850
   113  C          0.16348000       0.63243000       0.92980160
   114  C          0.33652000       0.36757000       0.42980160
   115  C          0.83652000       0.13243000       0.57019840
   116  C          0.66348000       0.86757000       0.07019840
   117  H          0.27986500       0.64083100       0.95702300
   118  H          0.22013500       0.35916900       0.45702300
   119  H          0.72013500       0.14083100       0.54297700
   120  H          0.77986500       0.85916900       0.04297700
   121  C          0.19948000       0.56943000       0.89229150
   122  C          0.30052000       0.43057000       0.39229150
   123  C          0.80052000       0.06943000       0.60770850
   124  C          0.69948000       0.93057000       0.10770850
   125  H          0.34128300       0.53512900       0.89369100
   126  H          0.15871700       0.46487100       0.39369100
   127  H          0.65871700       0.03512900       0.60630900
   128  H          0.84128300       0.96487100       0.10630900
   129  C          0.45028000       0.30363000       0.79069160
   130  C          0.04972000       0.69637000       0.29069160
   131  C          0.54972000       0.80363000       0.70930840
   132  C          0.95028000       0.19637000       0.20930840
   133  C          0.59998000       0.30253000       0.83563160
   134  C          0.90002000       0.69747000       0.33563160
   135  C          0.40002000       0.80253000       0.66436840
   136  C          0.09998000       0.19747000       0.16436840
   137  H          0.57075800       0.34144300       0.86382400
   138  H          0.92924200       0.65855700       0.36382400
   139  H          0.42924200       0.84144300       0.63617600
   140  H          0.07075800       0.15855700       0.13617600
   141  C          0.78998000       0.24493000       0.83916160
   142  C          0.71002000       0.75507000       0.33916160
   143  C          0.21002000       0.74493000       0.66083840
   144  C          0.28998000       0.25507000       0.16083840
   145  H          0.88973400       0.24440700       0.86983400
   146  H          0.61026600       0.75559300       0.36983400
   147  H          0.11026600       0.74440700       0.63016600
   148  H          0.38973400       0.25559300       0.13016600
   149  C          0.83577000       0.18752000       0.79786150
   150  C          0.66423000       0.81248000       0.29786150
   151  C          0.16423000       0.68752000       0.70213850
   152  C          0.33577000       0.31248000       0.20213850
   153  C          0.68688000       0.18822000       0.75319150
   154  C          0.81312000       0.81178000       0.25319150
   155  C          0.31312000       0.68822000       0.74680850
   156  C          0.18688000       0.31178000       0.24680850
   157  H          0.71618500       0.14929700       0.72493200
   158  H          0.78381500       0.85070300       0.22493200
   159  H          0.28381500       0.64929700       0.77506800
   160  H          0.21618500       0.35070300       0.27506800
   161  C          0.49718000       0.24522000       0.75012170
   162  C          0.00282000       0.75478000       0.25012170
   163  C          0.50282000       0.74522000       0.74987830
   164  C         -0.00282000       0.25478000       0.24987830
   165  H          0.39594100       0.24478100       0.71965600
   166  H          0.10405900       0.75521900       0.21965600
   167  H          0.60405900       0.74478100       0.78034400
   168  H          0.89594100       0.25521900       0.28034400
   169  Br         0.30663900       0.67781300       0.49370300
   170  Br         0.19336100       0.32218700       0.99370300
   171  Br         0.69336100       0.17781300       0.00629700
   172  Br         0.80663900       0.82218700       0.50629700
   173  N          0.95043000       0.50672000       0.54668140
   174  N          0.54957000       0.49328000       0.04668140
   175  N          0.04957000       0.00672000       0.95331860
   176  N          0.45043000      -0.00672000       0.45331860
   177  C          0.85781000       0.56633000       0.57870170
   178  C          0.64219000       0.43367000       0.07870170
   179  C          0.14219000       0.06633000       0.92129830
   180  C          0.35781000       0.93367000       0.42129830
   181  H          0.92728000       0.57322300       0.61290300
   182  H          0.57272000       0.42677700       0.11290300
   183  H          0.07272000       0.07322300       0.88709700
   184  H          0.42728000       0.92677700       0.38709700
   185  C          0.66689000       0.61823000       0.56470190
   186  C          0.83311000       0.38177000       0.06470190
   187  C          0.33311000       0.11823000       0.93529810
   188  C          0.16689000       0.88177000       0.43529810
   189  H          0.60405600       0.65946800       0.58870200
   190  H          0.89594400       0.34053200       0.08870200
   191  H          0.39594400       0.15946800       0.91129800
   192  H          0.10405600       0.84053200       0.41129800
   193  C          0.56932000       0.60833000       0.51462000
   194  C          0.93068000       0.39167000       0.01462000
   195  C          0.43068000       0.10833000       0.98538000
   196  C          0.06932000       0.89167000       0.48538000
   197  C          0.66101000       0.54863000       0.48039190
   198  C          0.83899000       0.45137000       0.98039190
   199  C          0.33899000       0.04863000       0.01960810
   200  C          0.16101000       0.95137000       0.51960810
   201  H          0.59690300       0.54170100       0.44569900
   202  H          0.90309700       0.45829900       0.94569900
   203  H          0.40309700       0.04170100       0.05430100
   204  H          0.09690300       0.95829900       0.55430100
   205  C          0.85102000       0.49863000       0.49832180
   206  C          0.64898000       0.50137000      -0.00167820
   207  C          0.14898000      -0.00137000       0.00167820
   208  C          0.35102000       0.00137000       0.50167820
   209  H          0.91465200       0.45617500       0.47517300
   210  H          0.58534800       0.54382500       0.97517300
   211  H          0.08534800       0.95617500       0.02482700
   212  H          0.41465200       0.04382500       0.52482700
