data_MABZUO
_symmetry_space_group_name_H-M    'P1'
_symmetry_Int_Tables_number       1
loop_
_symmetry_equiv_pos_site_id
_symmetry_equiv_pos_as_xyz
1 x,y,z
_cell_length_a                   5.54625
_cell_length_b                   15.228013
_cell_length_c                   24.3072
_cell_angle_alpha                90.0
_cell_angle_beta                 92.4054
_cell_angle_gamma                90.0
loop_
_atom_site_label
_atom_site_type_symbol
_atom_site_fract_x
_atom_site_fract_y
_atom_site_fract_z
     1  O          0.02261170       0.35333600       0.55507400
     2  O          0.47738830       0.85333600       0.94492600
     3  O         -0.02261170       0.64666400       0.44492600
     4  O          0.52261170       0.14666400       0.05507400
     5  H          0.92380000       0.29995000       0.55154000
     6  H          0.57620000       0.79995000       0.94846000
     7  H          0.07620000       0.70005000       0.44846000
     8  H          0.42380000       0.20005000       0.05154000
     9  O          0.72717170       0.00558600       0.97435400
    10  O          0.77282830       0.50558600       0.52564600
    11  O          0.27282830      -0.00558600       0.02564600
    12  O          0.22717170       0.49441400       0.47435400
    13  H          0.59920000       0.96404000       0.96294000
    14  H          0.90080000       0.46404000       0.53706000
    15  H          0.40080000       0.03596000       0.03706000
    16  H          0.09920000       0.53596000       0.46294000
    17  O          0.79889180       0.62309700       0.80406400
    18  O          0.70110820       0.12309700       0.69593600
    19  O          0.20110820       0.37690300       0.19593600
    20  O          0.29889180       0.87690300       0.30406400
    21  H          0.80920000       0.66129000       0.77163000
    22  H          0.69080000       0.16129000       0.72837000
    23  H          0.19080000       0.33871000       0.22837000
    24  H          0.30920000       0.83871000       0.27163000
    25  N          0.66882000       0.26776800       0.77143500
    26  N          0.83118000       0.76776800       0.72856500
    27  N          0.33118000       0.73223200       0.22856500
    28  N          0.16882000       0.23223200       0.27143500
    29  N         -0.01188000       0.33275800       0.82522500
    30  N          0.51188000       0.83275800       0.67477500
    31  N          0.01188000       0.66724200       0.17477500
    32  N          0.48812000       0.16724200       0.32522500
    33  N          0.86182000       0.39591800       0.73923500
    34  N          0.63818000       0.89591800       0.76076500
    35  N          0.13818000       0.60408200       0.26076500
    36  N          0.36182000       0.10408200       0.23923500
    37  C          0.81332000       0.27305900       0.81714600
    38  C          0.68668000       0.77305900       0.68285400
    39  C          0.18668000       0.72694100       0.18285400
    40  C          0.31332000       0.22694100       0.31714600
    41  C          0.01142000       0.39064900       0.78393600
    42  C          0.48858000       0.89064900       0.71606400
    43  C         -0.01142000       0.60935100       0.21606400
    44  C          0.51142000       0.10935100       0.28393600
    45  C          0.69202000       0.33368900       0.73495600
    46  C          0.80798000       0.83368900       0.76504400
    47  C          0.30798000       0.66631100       0.26504400
    48  C          0.19202000       0.16631100       0.23495600
    49  C          0.51942000       0.33596900       0.68726600
    50  C         -0.01942000       0.83596900       0.81273400
    51  C          0.48058000       0.66403100       0.31273400
    52  C          0.01942000       0.16403100       0.18726600
    53  C          0.31832000       0.28039900       0.68469600
    54  C          0.18168000       0.78039900       0.81530400
    55  C          0.68168000       0.71960100       0.31530400
    56  C          0.81832000       0.21960100       0.18469600
    57  H          0.29644600       0.23922200       0.71341600
    58  H          0.20355400       0.73922200       0.78658400
    59  H          0.70355400       0.76077800       0.28658400
    60  H          0.79644600       0.26077800       0.21341600
    61  C          0.15072000       0.28447900       0.64094600
    62  C          0.34928000       0.78447900       0.85905400
    63  C          0.84928000       0.71552100       0.35905400
    64  C          0.65072000       0.21552100       0.14094600
    65  H          0.01440500       0.24660500       0.63974200
    66  H          0.48559500       0.74660500       0.86025800
    67  H         -0.01440500       0.75339500       0.36025800
    68  H          0.51440500       0.25339500       0.13974200
    69  C          0.18352000       0.34472900       0.59855600
    70  C          0.31648000       0.84472900       0.90144400
    71  C          0.81648000       0.65527100       0.40144400
    72  C          0.68352000       0.15527100       0.09855600
    73  C          0.38432000       0.40004900       0.60033600
    74  C          0.11568000       0.90004900       0.89966400
    75  C          0.61568000       0.59995100       0.39966400
    76  C          0.88432000       0.09995100       0.10033600
    77  H          0.40700300       0.44068600       0.57135000
    78  H          0.09299700       0.94068600       0.92865000
    79  H          0.59299700       0.55931400       0.42865000
    80  H          0.90700300       0.05931400       0.07135000
    81  C          0.55042000       0.39560900       0.64433600
    82  C          0.94958000       0.89560900       0.85566400
    83  C          0.44958000       0.60439100       0.35566400
    84  C          0.05042000       0.10439100       0.14433600
    85  H          0.68677000       0.43340800       0.64541800
    86  H          0.81323000       0.93340800       0.85458200
    87  H          0.31323000       0.56659200       0.35458200
    88  H          0.18677000       0.06659200       0.14541800
    89  C          0.78022000       0.20669900       0.86020600
    90  C          0.71978000       0.70669900       0.63979400
    91  C          0.21978000       0.79330100       0.13979400
    92  C          0.28022000       0.29330100       0.36020600
    93  C          0.95183000       0.19615100       0.90352600
    94  C          0.54817000       0.69615100       0.59647400
    95  C          0.04817000       0.80384900       0.09647400
    96  C          0.45183000       0.30384900       0.40352600
    97  H          0.08580100       0.23496400       0.90656900
    98  H          0.41419900       0.73496400       0.59343100
    99  H          0.91419900       0.76503600       0.09343100
   100  H          0.58580100       0.26503600       0.40656900
   101  C          0.92923000       0.13002900       0.94203600
   102  C          0.57077000       0.63002900       0.55796400
   103  C          0.07077000       0.86997100       0.05796400
   104  C          0.42923000       0.36997100       0.44203600
   105  H          0.04647500       0.12381200       0.97139800
   106  H          0.45352500       0.62381200       0.52860200
   107  H          0.95352500       0.87618800       0.02860200
   108  H          0.54647500       0.37618800       0.47139800
   109  C          0.73352000       0.07250900       0.93751600
   110  C          0.76648000       0.57250900       0.56248400
   111  C          0.26648000       0.92749100       0.06248400
   112  C          0.23352000       0.42749100       0.43751600
   113  C          0.55642000       0.08437900       0.89591600
   114  C          0.94358000       0.58437900       0.60408400
   115  C          0.44358000       0.91562100       0.10408400
   116  C          0.05642000       0.41562100       0.39591600
   117  H          0.41926700       0.04693500       0.89378200
   118  H          0.08073300       0.54693500       0.60621800
   119  H          0.58073300       0.95306500       0.10621800
   120  H          0.91926700       0.45306500       0.39378200
   121  C          0.58023000       0.15066900       0.85772600
   122  C          0.91977000       0.65066900       0.64227400
   123  C          0.41977000       0.84933100       0.14227400
   124  C          0.08023000       0.34933100       0.35772600
   125  H          0.45897600       0.15830500       0.82934600
   126  H          0.04102400       0.65830500       0.67065400
   127  H          0.54102400       0.84169500       0.17065400
   128  H          0.95897600       0.34169500       0.32934600
   129  C          0.21502000       0.45245900       0.78862600
   130  C          0.28498000       0.95245900       0.71137400
   131  C          0.78498000       0.54754100       0.21137400
   132  C          0.71502000       0.04754100       0.28862600
   133  C          0.38053000       0.44839100       0.83340600
   134  C          0.11947000       0.94839100       0.66659400
   135  C          0.61947000       0.55160900       0.16659400
   136  C          0.88053000       0.05160900       0.33340600
   137  H          0.36116700       0.40507000       0.86099700
   138  H          0.13883300       0.90507000       0.63900300
   139  H          0.63883300       0.59493000       0.13900300
   140  H          0.86116700       0.09493000       0.36099700
   141  C          0.57193000       0.50634100       0.83829600
   142  C          0.92807000       0.00634100       0.66170400
   143  C          0.42807000       0.49365900       0.16170400
   144  C          0.07193000      -0.00634100       0.33829600
   145  H          0.68051900       0.50372800       0.86953300
   146  H          0.81948100       0.00372800       0.63046700
   147  H          0.31948100       0.49627200       0.13046700
   148  H          0.18051900      -0.00372800       0.36953300
   149  C          0.60552000       0.56871900       0.79724600
   150  C          0.89448000       0.06871900       0.70275400
   151  C          0.39448000       0.43128100       0.20275400
   152  C          0.10552000       0.93128100       0.29724600
   153  C          0.44423000       0.57258100       0.75176600
   154  C          0.05577000       0.07258100       0.74823400
   155  C          0.55577000       0.42741900       0.24823400
   156  C          0.94423000       0.92741900       0.25176600
   157  H          0.46678300       0.61468100       0.72359500
   158  H          0.03321700       0.11468100       0.77640500
   159  H          0.53321700       0.38531900       0.27640500
   160  H          0.96678300       0.88531900       0.22359500
   161  C          0.25113000       0.51504900       0.74768600
   162  C          0.24887000       0.01504900       0.75231400
   163  C          0.74887000       0.48495100       0.25231400
   164  C          0.75113000       0.98495100       0.24768600
   165  H          0.14161000       0.51809500       0.71662700
   166  H          0.35839000       0.01809500       0.78337300
   167  H          0.85839000       0.48190500       0.28337300
   168  H          0.64161000       0.98190500       0.21662700
   169  N          0.77948000       0.20431800       0.53454500
   170  N          0.72052000       0.70431800       0.96545500
   171  N          0.22052000       0.79568200       0.46545500
   172  N          0.27948000       0.29568200       0.03454500
   173  C          0.85446000       0.15482120       0.49317700
   174  C          0.64554000       0.65482120       0.00682300
   175  C          0.14554000       0.84517880       0.50682300
   176  C          0.35446000       0.34517880       0.99317700
   177  H         -0.01526700       0.17561800       0.47261000
   178  H          0.51526700       0.67561800       0.02739000
   179  H          0.01526700       0.82438200       0.52739000
   180  H          0.48473300       0.32438200       0.97261000
   181  C          0.75206000       0.07512130       0.47888700
   182  C          0.74794000       0.57512130       0.02111300
   183  C          0.24794000       0.92487870       0.52111300
   184  C          0.25206000       0.42487870       0.97888700
   185  H          0.81396500       0.04208700       0.44947000
   186  H          0.68603500       0.54208700       0.05053000
   187  H          0.18603500       0.95791300       0.55053000
   188  H          0.31396500       0.45791300       0.94947000
   189  C          0.55817000       0.04279100       0.50741600
   190  C          0.94183000       0.54279100       0.99258400
   191  C          0.44183000       0.95720900       0.49258400
   192  C          0.05817000       0.45720900       0.00741600
   193  C          0.48297000       0.09393110       0.55068700
   194  C          0.01703000       0.59393110       0.94931300
   195  C          0.51703000       0.90606890       0.44931300
   196  C         -0.01703000       0.40606890       0.05068700
   197  H          0.35305300       0.07491800       0.57198700
   198  H          0.14694700       0.57491800       0.92801300
   199  H          0.64694700       0.92508200       0.42801300
   200  H          0.85305300       0.42508200       0.07198700
   201  C          0.59797000       0.17294110       0.56275700
   202  C          0.90203000       0.67294110       0.93724300
   203  C          0.40203000       0.82705890       0.43724300
   204  C          0.09797000       0.32705890       0.06275700
   205  H          0.54417300       0.20648500       0.59281300
   206  H          0.95582700       0.70648500       0.90718700
   207  H          0.45582700       0.79351500       0.40718700
   208  H          0.04417300       0.29351500       0.09281300
