data_MACMEM
_symmetry_space_group_name_H-M    'P1'
_symmetry_Int_Tables_number       1
loop_
_symmetry_equiv_pos_site_id
_symmetry_equiv_pos_as_xyz
1 x,y,z
_cell_length_a                   5.642437
_cell_length_b                   10.4438112
_cell_length_c                   28.09103
_cell_angle_alpha                90.0
_cell_angle_beta                 90.0
_cell_angle_gamma                90.0
loop_
_atom_site_label
_atom_site_type_symbol
_atom_site_fract_x
_atom_site_fract_y
_atom_site_fract_z
     1  I          0.86732819       0.59884210       0.67903340
     2  I          0.63267181       0.40115790       0.17903340
     3  I          0.13267181       0.09884210       0.82096660
     4  I          0.36732819       0.90115790       0.32096660
     5  O          0.18962000       0.21492140       0.60843400
     6  O          0.31038000       0.78507860       0.10843400
     7  O          0.81038000       0.71492140       0.89156600
     8  O          0.68962000       0.28507860       0.39156600
     9  O          0.19662000       0.09765120       0.67494400
    10  O          0.30338000       0.90234880       0.17494400
    11  O          0.80338000       0.59765120       0.82505600
    12  O          0.69662000       0.40234880       0.32505600
    13  C          0.23823000       0.19556170       0.65146600
    14  C          0.26177000       0.80443830       0.15146600
    15  C          0.76177000       0.69556170       0.84853400
    16  C          0.73823000       0.30443830       0.34853400
    17  C          0.35033000       0.30879150       0.67736600
    18  C          0.14967000       0.69120850       0.17736600
    19  C          0.64967000       0.80879150       0.82263400
    20  C          0.85033000       0.19120850       0.32263400
    21  H          0.48250000       0.34320000       0.65810000
    22  H          0.01750000       0.65680000       0.15810000
    23  H          0.51750000       0.84320000       0.84190000
    24  H         -0.01750000       0.15680000       0.34190000
    25  H          0.23100000       0.37750000       0.68120000
    26  H          0.26900000       0.62250000       0.18120000
    27  H          0.76900000       0.87750000       0.81880000
    28  H          0.73100000       0.12250000       0.31880000
    29  N          0.44083000       0.26987140       0.72499500
    30  N          0.05917000       0.73012860       0.22499500
    31  N          0.55917000       0.76987140       0.77500500
    32  N          0.94083000       0.23012860       0.27500500
    33  H          0.33820000       0.20820000       0.73710000
    34  H          0.16180000       0.79180000       0.23710000
    35  H          0.66180000       0.70820000       0.76290000
    36  H          0.83820000       0.29180000       0.26290000
    37  C          0.67834000       0.21072000       0.72087800
    38  C          0.82166000       0.78928000       0.22087800
    39  C          0.32166000       0.71072000       0.77912200
    40  C          0.17834000       0.28928000       0.27912200
    41  H          0.67260000       0.14090000       0.69760000
    42  H          0.82740000       0.85910000       0.19760000
    43  H          0.32740000       0.64090000       0.80240000
    44  H          0.17260000       0.35910000       0.30240000
    45  H          0.72650000       0.17670000       0.75190000
    46  H          0.77350000       0.82330000       0.25190000
    47  H          0.27350000       0.67670000       0.74810000
    48  H          0.22650000       0.32330000       0.24810000
    49  H          0.79290000       0.27530000       0.71040000
    50  H          0.70710000       0.72470000       0.21040000
    51  H          0.20710000       0.77530000       0.78960000
    52  H          0.29290000       0.22470000       0.28960000
    53  C          0.44295000       0.37952000       0.75892800
    54  C          0.05705000       0.62048000       0.25892800
    55  C          0.55705000       0.87952000       0.74107200
    56  C          0.94295000       0.12048000       0.24107200
    57  H          0.53260000       0.45070000       0.74510000
    58  H          0.96740000       0.54930000       0.24510000
    59  H          0.46740000       0.95070000       0.75490000
    60  H          0.03260000       0.04930000       0.25490000
    61  H          0.51760000       0.35280000       0.78880000
    62  H         -0.01760000       0.64720000       0.28880000
    63  H          0.48240000       0.85280000       0.71120000
    64  H          0.01760000       0.14720000       0.21120000
    65  H          0.27980000       0.40710000       0.76520000
    66  H          0.22020000       0.59290000       0.26520000
    67  H          0.72020000       0.90710000       0.73480000
    68  H          0.77980000       0.09290000       0.23480000
    69  N          0.84793000       0.92845120       0.63155500
    70  N          0.65207000       0.07154880       0.13155500
    71  N          0.15207000       0.42845120       0.86844500
    72  N          0.34793000       0.57154880       0.36844500
    73  H          0.82430000       0.84800000       0.63950000
    74  H          0.67570000       0.15200000       0.13950000
    75  H          0.17570000       0.34800000       0.86050000
    76  H          0.32430000       0.65200000       0.36050000
    77  H          0.97410000       0.96920000       0.64200000
    78  H          0.52590000       0.03080000       0.14200000
    79  H          0.02590000       0.46920000       0.85800000
    80  H          0.47410000       0.53080000       0.35800000
    81  O          0.77632000       0.50300110       0.50107400
    82  O          0.72368000       0.49699890       0.00107400
    83  O          0.22368000       0.00300110      -0.00107400
    84  O          0.27632000      -0.00300110       0.49892600
    85  O          0.65292000       0.31989100       0.53313400
    86  O          0.84708000       0.68010900       0.03313400
    87  O          0.34708000       0.81989100       0.96686600
    88  O          0.15292000       0.18010900       0.46686600
    89  C          0.62133000       0.43176120       0.51880500
    90  C          0.87867000       0.56823880       0.01880500
    91  C          0.37867000       0.93176120       0.98119500
    92  C          0.12133000       0.06823880       0.48119500
    93  C          0.37243000       0.48850120       0.52431400
    94  C          0.12757000       0.51149880       0.02431400
    95  C          0.62757000      -0.01149880       0.97568600
    96  C          0.87243000       0.01149880       0.47568600
    97  H          0.33050000       0.53510000       0.49440000
    98  H          0.16950000       0.46490000       0.99440000
    99  H          0.66950000       0.03510000       0.00560000
   100  H          0.83050000       0.96490000       0.50560000
   101  N          0.19882000       0.38314120       0.53161500
   102  N          0.30118000       0.61685880       0.03161500
   103  N          0.80118000       0.88314120       0.96838500
   104  N          0.69882000       0.11685880       0.46838500
   105  H          0.04920000       0.41370000       0.52740000
   106  H          0.45080000       0.58630000       0.02740000
   107  H          0.95080000       0.91370000       0.97260000
   108  H          0.54920000       0.08630000       0.47260000
   109  H          0.21360000       0.35180000       0.56170000
   110  H          0.28640000       0.64820000       0.06170000
   111  H          0.78640000       0.85180000       0.93830000
   112  H          0.71360000       0.14820000       0.43830000
   113  H          0.22730000       0.31950000       0.51020000
   114  H          0.27270000       0.68050000       0.01020000
   115  H          0.77270000       0.81950000       0.98980000
   116  H          0.72730000       0.18050000       0.48980000
   117  C          0.35453000       0.58173130       0.56602500
   118  C          0.14547000       0.41826870       0.06602500
   119  C          0.64547000       0.08173130       0.93397500
   120  C          0.85453000       0.91826870       0.43397500
   121  H          0.18500000       0.59800000       0.57280000
   122  H          0.31500000       0.40200000       0.07280000
   123  H          0.81500000       0.09800000       0.92720000
   124  H          0.68500000       0.90200000       0.42720000
   125  H          0.42480000       0.54110000       0.59460000
   126  H          0.07520000       0.45890000       0.09460000
   127  H          0.57520000       0.04110000       0.90540000
   128  H          0.92480000       0.95890000       0.40540000
   129  C          0.47793000       0.70963150       0.55735500
   130  C          0.02207000       0.29036850       0.05735500
   131  C          0.52207000       0.20963150       0.94264500
   132  C         -0.02207000       0.79036850       0.44264500
   133  H          0.65150000       0.69630000       0.55570000
   134  H          0.84850000       0.30370000       0.05570000
   135  H          0.34850000       0.19630000       0.94430000
   136  H          0.15150000       0.80370000       0.44430000
   137  H          0.42490000       0.74590000       0.52660000
   138  H          0.07510000       0.25410000       0.02660000
   139  H          0.57510000       0.24590000       0.97340000
   140  H          0.92490000       0.75410000       0.47340000
   141  C          0.42033000       0.80254140       0.59730500
   142  C          0.07967000       0.19745860       0.09730500
   143  C          0.57967000       0.30254140       0.90269500
   144  C          0.92033000       0.69745860       0.40269500
   145  H          0.24680000       0.80330000       0.60260000
   146  H          0.25320000       0.19670000       0.10260000
   147  H          0.75320000       0.30330000       0.89740000
   148  H          0.74680000       0.69670000       0.39740000
   149  H          0.49670000       0.77250000       0.62700000
   150  H          0.00330000       0.22750000       0.12700000
   151  H          0.50330000       0.27250000       0.87300000
   152  H         -0.00330000       0.72750000       0.37300000
   153  N          0.49982000       0.93202120       0.58702500
   154  N          0.00018000       0.06797880       0.08702500
   155  N          0.50018000       0.43202120       0.91297500
   156  N         -0.00018000       0.56797880       0.41297500
   157  H          0.41060000       0.97760000       0.56770000
   158  H          0.08940000       0.02240000       0.06770000
   159  H          0.58940000       0.47760000       0.93230000
   160  H          0.91060000       0.52240000       0.43230000
   161  C          0.69323000      -0.01163860       0.60384500
   162  C          0.80677000       0.01163860       0.10384500
   163  C          0.30677000       0.48836140       0.89615500
   164  C          0.19323000       0.51163860       0.39615500
   165  N          0.73433000       0.11052140       0.59279500
   166  N          0.76567000       0.88947860       0.09279500
   167  N          0.26567000       0.61052140       0.90720500
   168  N          0.23433000       0.38947860       0.40720500
   169  H          0.86140000       0.14930000       0.60380000
   170  H          0.63860000       0.85070000       0.10380000
   171  H          0.13860000       0.64930000       0.89620000
   172  H          0.36140000       0.35070000       0.39620000
   173  H          0.63430000       0.15240000       0.57450000
   174  H          0.86570000       0.84760000       0.07450000
   175  H          0.36570000       0.65240000       0.92550000
   176  H          0.13430000       0.34760000       0.42550000
