data_MADCUQ
_symmetry_space_group_name_H-M    'P1'
_symmetry_Int_Tables_number       1
loop_
_symmetry_equiv_pos_site_id
_symmetry_equiv_pos_as_xyz
1 x,y,z
_cell_length_a                   5.54865
_cell_length_b                   17.718417
_cell_length_c                   22.0912
_cell_angle_alpha                90.0
_cell_angle_beta                 92.05011
_cell_angle_gamma                90.0
loop_
_atom_site_label
_atom_site_type_symbol
_atom_site_fract_x
_atom_site_fract_y
_atom_site_fract_z
     1  S          0.12142000       0.78498800       0.37917500
     2  S          0.87858000       0.28498800       0.12082500
     3  S          0.87858000       0.21501200       0.62082500
     4  S          0.12142000       0.71501200       0.87917500
     5  S          0.30662000       0.85019800       0.49486500
     6  S          0.69338000       0.35019800       0.00513500
     7  S          0.69338000       0.14980200       0.50513500
     8  S          0.30662000       0.64980200      -0.00513500
     9  S          0.48023000       0.88891900       0.30613600
    10  S          0.51977000       0.38891900       0.19386400
    11  S          0.51977000       0.11108100       0.69386400
    12  S          0.48023000       0.61108100       0.80613600
    13  S          0.69692000       0.94905800       0.41895500
    14  S          0.30308000       0.44905800       0.08104500
    15  S          0.30308000       0.05094200       0.58104500
    16  S          0.69692000       0.55094200       0.91895500
    17  S          0.66773000       0.01301100       0.22885600
    18  S          0.33227000       0.51301100       0.27114400
    19  S          0.33227000       0.98698900       0.77114400
    20  S          0.66773000       0.48698900       0.72885600
    21  S          0.90132000       0.08605800       0.35833600
    22  S          0.09868000       0.58605800       0.14166400
    23  S          0.09868000       0.91394200       0.64166400
    24  S          0.90132000       0.41394200       0.85833600
    25  C          0.97282000       0.76093000       0.44476180
    26  C          0.02718000       0.26093000       0.05523820
    27  C          0.02718000       0.23907000       0.55523820
    28  C          0.97282000       0.73907000       0.94476180
    29  C          0.06188000       0.79083000       0.49662000
    30  C          0.93812000       0.29083000       0.00338000
    31  C          0.93812000       0.20917000       0.50338000
    32  C          0.06188000       0.70917000      -0.00338000
    33  H         -0.00830000       0.77960000       0.53310000
    34  H          0.00830000       0.27960000       0.96690000
    35  H          0.00830000       0.22040000       0.46690000
    36  H         -0.00830000       0.72040000       0.03310000
    37  C          0.32718000       0.84703000       0.41552190
    38  C          0.67282000       0.34703000       0.08447810
    39  C          0.67282000       0.15297000       0.58447810
    40  C          0.32718000       0.65297000       0.91552190
    41  C          0.48278000       0.88843000       0.38532000
    42  C          0.51722000       0.38843000       0.11468000
    43  C          0.51722000       0.11157000       0.61468000
    44  C          0.48278000       0.61157000       0.88532000
    45  C          0.63838000       0.97403000       0.30072000
    46  C          0.36162000       0.47403000       0.19928000
    47  C          0.36162000       0.02597000       0.69928000
    48  C          0.63838000       0.52597000       0.80072000
    49  C          0.73928000       0.00193000       0.35252000
    50  C          0.26072000       0.50193000       0.14748000
    51  C          0.26072000      -0.00193000       0.64748000
    52  C          0.73928000       0.49807000       0.85252000
    53  C          0.36631100       0.01594000       0.20203000
    54  C          0.63368900       0.51594000       0.29797000
    55  C          0.63368900       0.98406000       0.79797000
    56  C          0.36631100       0.48406000       0.70203000
    57  H          0.31210000       0.96570000       0.19250000
    58  H          0.68790000       0.46570000       0.30750000
    59  H          0.68790000       0.03430000       0.80750000
    60  H          0.31210000       0.53430000       0.69250000
    61  H          0.35430000       0.04660000       0.16610000
    62  H          0.64570000       0.54660000       0.33390000
    63  H          0.64570000       0.95340000       0.83390000
    64  H          0.35430000       0.45340000       0.66610000
    65  H          0.26780000       0.03710000       0.23250000
    66  H          0.73220000       0.53710000       0.26750000
    67  H          0.73220000       0.96290000       0.76750000
    68  H          0.26780000       0.46290000       0.73250000
    69  C          0.15089000       0.05703000       0.40423000
    70  C          0.84911000       0.55703000       0.09577000
    71  C          0.84911000       0.94297000       0.59577000
    72  C          0.15089000       0.44297000       0.90423000
    73  H          0.09620000       0.04020000       0.44270000
    74  H          0.90380000       0.54020000       0.05730000
    75  H          0.90380000       0.95980000       0.55730000
    76  H          0.09620000       0.45980000       0.94270000
    77  H          0.25990000       0.09860000       0.41020000
    78  H          0.74010000       0.59860000       0.08980000
    79  H          0.74010000       0.90140000       0.58980000
    80  H          0.25990000       0.40140000       0.91020000
    81  H          0.23220000       0.01640000       0.38470000
    82  H          0.76780000       0.51640000       0.11530000
    83  H          0.76780000       0.98360000       0.61530000
    84  H          0.23220000       0.48360000       0.88470000
    85  C          0.77512000       0.70583000       0.43372000
    86  C          0.22488000       0.20583000       0.06628000
    87  C          0.22488000       0.29417000       0.56628000
    88  C          0.77512000       0.79417000       0.93372000
    89  O          0.72374000       0.68779180       0.38202130
    90  O          0.27626000       0.18779180       0.11797870
    91  O          0.27626000       0.31220820       0.61797870
    92  O          0.72374000       0.81220820       0.88202130
    93  N          0.66193000       0.67842000       0.48216150
    94  N          0.33807000       0.17842000       0.01783850
    95  N          0.33807000       0.32158000       0.51783850
    96  N          0.66193000       0.82158000       0.98216150
    97  H          0.71320000       0.69440000       0.51710000
    98  H          0.28680000       0.19440000       0.98290000
    99  H          0.28680000       0.30560000       0.48290000
   100  H          0.71320000       0.80560000       0.01710000
   101  C          0.47042000       0.62682000       0.48198180
   102  C          0.52958000       0.12682000       0.01801820
   103  C          0.52958000       0.37318000       0.51801820
   104  C          0.47042000       0.87318000       0.98198180
   105  C          0.33732000       0.60443000       0.43202000
   106  C          0.66268000       0.10443000       0.06798000
   107  C          0.66268000       0.39557000       0.56798000
   108  C          0.33732000       0.89557000       0.93202000
   109  H          0.37140000       0.62300000       0.39390000
   110  H          0.62860000       0.12300000       0.10610000
   111  H          0.62860000       0.37700000       0.60610000
   112  H          0.37140000       0.87700000       0.89390000
   113  C          0.15202000       0.55403000       0.43902000
   114  C          0.84798000       0.05403000       0.06098000
   115  C          0.84798000       0.44597000       0.56098000
   116  C          0.15202000       0.94597000       0.93902000
   117  H          0.06140000       0.53810000       0.40510000
   118  H          0.93860000       0.03810000       0.09490000
   119  H          0.93860000       0.46190000       0.59490000
   120  H          0.06140000       0.96190000       0.90510000
   121  C          0.09863000       0.52672000       0.49502000
   122  C          0.90137000       0.02672000       0.00498000
   123  C          0.90137000       0.47328000       0.50498000
   124  C          0.09863000       0.97328000      -0.00498000
   125  N          0.22503000       0.54902000       0.54440160
   126  N          0.77497000       0.04902000       0.95559840
   127  N          0.77497000       0.45098000       0.45559840
   128  N          0.22503000       0.95098000       0.04440160
   129  C          0.40601000       0.59723000       0.53702000
   130  C          0.59399000       0.09723000       0.96298000
   131  C          0.59399000       0.40277000       0.46298000
   132  C          0.40601000       0.90277000       0.03702000
   133  H          0.49560000       0.61200000       0.57140000
   134  H          0.50440000       0.11200000       0.92860000
   135  H          0.50440000       0.38800000       0.42860000
   136  H          0.49560000       0.88800000       0.07140000
   137  N          0.76811000       0.72023000       0.61458170
   138  N          0.23189000       0.22023000       0.88541830
   139  N          0.23189000       0.27977000       0.38541830
   140  N          0.76811000       0.77977000       0.11458170
   141  C          0.94169000       0.69523000       0.65102000
   142  C          0.05831000       0.19523000       0.84898000
   143  C          0.05831000       0.30477000       0.34898000
   144  C          0.94169000       0.80477000       0.15102000
   145  H          0.05620000       0.66300000       0.63540000
   146  H          0.94380000       0.16300000       0.86460000
   147  H          0.94380000       0.33700000       0.36460000
   148  H          0.05620000       0.83700000       0.13540000
   149  C          0.96278900       0.71444000       0.71112000
   150  C          0.03721100       0.21444000       0.78888000
   151  C          0.03721100       0.28556000       0.28888000
   152  C          0.96278900       0.78556000       0.21112000
   153  H          0.09200000       0.69650000       0.73500000
   154  H          0.90800000       0.19650000       0.76500000
   155  H          0.90800000       0.30350000       0.26500000
   156  H          0.09200000       0.80350000       0.23500000
   157  C          0.79648900       0.75903000       0.73532000
   158  C          0.20351100       0.25903000       0.76468000
   159  C          0.20351100       0.24097000       0.26468000
   160  C          0.79648900       0.74097000       0.23532000
   161  H          0.80670000       0.77190000       0.77610000
   162  H          0.19330000       0.27190000       0.72390000
   163  H          0.19330000       0.22810000       0.22390000
   164  H          0.80670000       0.72810000       0.27610000
   165  C          0.61719000       0.78423000       0.69952000
   166  C          0.38281000       0.28423000       0.80048000
   167  C          0.38281000       0.21577000       0.30048000
   168  C          0.61719000       0.71577000       0.19952000
   169  H          0.49890000       0.81540000       0.71470000
   170  H          0.50110000       0.31540000       0.78530000
   171  H          0.50110000       0.18460000       0.28530000
   172  H          0.49890000       0.68460000       0.21470000
   173  C          0.61008900       0.76323000       0.64022000
   174  C          0.38991100       0.26323000       0.85978000
   175  C          0.38991100       0.23677000       0.35978000
   176  C          0.61008900       0.73677000       0.14022000
   177  H          0.48220000       0.78110000       0.61590000
   178  H          0.51780000       0.28110000       0.88410000
   179  H          0.51780000       0.21890000       0.38410000
   180  H          0.48220000       0.71890000       0.11590000
