data_MAFKUD
_symmetry_space_group_name_H-M    'P1'
_symmetry_Int_Tables_number       1
loop_
_symmetry_equiv_pos_site_id
_symmetry_equiv_pos_as_xyz
1 x,y,z
_cell_length_a                   17.2173
_cell_length_b                   11.274718
_cell_length_c                   16.4153
_cell_angle_alpha                90.0
_cell_angle_beta                 117.4593
_cell_angle_gamma                90.0
loop_
_atom_site_label
_atom_site_type_symbol
_atom_site_fract_x
_atom_site_fract_y
_atom_site_fract_z
     1  C          0.89275800       0.48799110       0.51740800
     2  C          0.10724200      -0.01200890       0.98259200
     3  C          0.10724200       0.51200890       0.48259200
     4  C          0.89275800       0.01200890       0.01740800
     5  H          0.84232400       0.45434000       0.46300500
     6  H          0.15767600       0.95434000       0.03699500
     7  H          0.15767600       0.54566000       0.53699500
     8  H          0.84232400       0.04566000       0.96300500
     9  H          0.92802800       0.53528000       0.49567400
    10  H          0.07197200       0.03528000       0.00432600
    11  H          0.07197200       0.46472000       0.50432600
    12  H          0.92802800       0.96472000      -0.00432600
    13  C          0.94867800       0.38720110       0.57887900
    14  C          0.05132200       0.88720110       0.92112100
    15  C          0.05132200       0.61279890       0.42112100
    16  C          0.94867800       0.11279890       0.07887900
    17  H          0.96875400       0.33529500       0.54285300
    18  H          0.03124600       0.83529500       0.95714700
    19  H          0.03124600       0.66470500       0.45714700
    20  H          0.96875400       0.16470500       0.04285300
    21  C          0.02880800       0.43915120       0.66124900
    22  C          0.97119200       0.93915120       0.83875100
    23  C          0.97119200       0.56084880       0.33875100
    24  C          0.02880800       0.06084880       0.16124900
    25  H          0.06559400       0.37435300       0.70102900
    26  H          0.93440600       0.87435300       0.79897100
    27  H          0.93440600       0.62564700       0.29897100
    28  H          0.06559400       0.12564700       0.20102900
    29  H          0.06444800       0.48584200       0.63964900
    30  H          0.93555200       0.98584200       0.86035100
    31  H          0.93555200       0.51415800       0.36035100
    32  H          0.06444800       0.01415800       0.13964900
    33  C         -0.00286200       0.51877120       0.71529800
    34  C          0.00286200       0.01877120       0.78470200
    35  C          0.00286200       0.48122880       0.28470200
    36  C         -0.00286200       0.98122880       0.21529800
    37  H          0.04881300       0.55312700       0.76928000
    38  H          0.95118700       0.05312700       0.73072000
    39  H          0.95118700       0.44687300       0.23072000
    40  H          0.04881300       0.94687300       0.26928000
    41  C          0.94281800       0.44537110       0.74890800
    42  C          0.05718200       0.94537110       0.75109200
    43  C          0.05718200       0.55462890       0.25109200
    44  C          0.94281800       0.05462890       0.24890800
    45  H          0.92362900       0.49650400       0.78528200
    46  H          0.07637100      -0.00349600       0.71471800
    47  H          0.07637100       0.50349600       0.21471800
    48  H          0.92362900       0.00349600       0.28528200
    49  H          0.97946900       0.38096800       0.78935600
    50  H          0.02053100       0.88096800       0.71064400
    51  H          0.02053100       0.61903200       0.21064400
    52  H          0.97946900       0.11903200       0.28935600
    53  C          0.86174700       0.39116110       0.66754800
    54  C          0.13825300       0.89116110       0.83245200
    55  C          0.13825300       0.60883890       0.33245200
    56  C          0.86174700       0.10883890       0.16754800
    57  C          0.89371800       0.31339110       0.61184900
    58  C          0.10628200       0.81339110       0.88815100
    59  C          0.10628200       0.68660890       0.38815100
    60  C          0.89371800       0.18660890       0.11184900
    61  H          0.92936900       0.24704900       0.65052100
    62  H          0.07063100       0.74704900       0.84947900
    63  H          0.07063100       0.75295100       0.34947900
    64  H          0.92936900       0.25295100       0.15052100
    65  H          0.84270600       0.27936600       0.55821900
    66  H          0.15729400       0.77936600       0.94178100
    67  H          0.15729400       0.72063400       0.44178100
    68  H          0.84270600       0.22063400       0.05821900
    69  C          0.94016800       0.61966110       0.65401800
    70  C          0.05983200       0.11966110       0.84598200
    71  C          0.05983200       0.38033890       0.34598200
    72  C          0.94016800       0.88033890       0.15401800
    73  H          0.97509500       0.66852800       0.63277800
    74  H          0.02490500       0.16852800       0.86722200
    75  H          0.02490500       0.33147200       0.36722200
    76  H          0.97509500       0.83147200       0.13277800
    77  H          0.92063800       0.67119800       0.68988700
    78  H          0.07936200       0.17119800       0.81011300
    79  H          0.07936200       0.32880200       0.31011300
    80  H          0.92063800       0.82880200       0.18988700
    81  C          0.81069800       0.32110110       0.70683800
    82  C          0.18930200       0.82110110       0.79316200
    83  C          0.18930200       0.67889890       0.29316200
    84  C          0.81069800       0.17889890       0.20683800
    85  C          0.78549800       0.37535110       0.76793900
    86  C          0.21450200       0.87535110       0.73206100
    87  C          0.21450200       0.62464890       0.23206100
    88  C          0.78549800       0.12464890       0.26793900
    89  H          0.79567300       0.45782500       0.77994800
    90  H          0.20432700       0.95782500       0.72005200
    91  H          0.20432700       0.54217500       0.22005200
    92  H          0.79567300       0.04217500       0.27994800
    93  C          0.74606800       0.31168120       0.81131900
    94  C          0.25393200       0.81168120       0.68868100
    95  C          0.25393200       0.68831880       0.18868100
    96  C          0.74606800       0.18831880       0.31131900
    97  H          0.73062500       0.35018500       0.85327600
    98  H          0.26937500       0.85018500       0.64672400
    99  H          0.26937500       0.64981500       0.14672400
   100  H          0.73062500       0.14981500       0.35327600
   101  C          0.72938800       0.19221110       0.79322800
   102  C          0.27061200       0.69221110       0.70677200
   103  C          0.27061200       0.80778890       0.20677200
   104  C          0.72938800       0.30778890       0.29322800
   105  C          0.75084800       0.13806110       0.73037800
   106  C          0.24915200       0.63806110       0.76962200
   107  C          0.24915200       0.86193890       0.26962200
   108  C          0.75084800       0.36193890       0.23037800
   109  C          0.79160800       0.20130110       0.68794800
   110  C          0.20839200       0.70130110       0.81205200
   111  C          0.20839200       0.79869890       0.31205200
   112  C          0.79160800       0.29869890       0.18794800
   113  H          0.80649900       0.16233500       0.64574400
   114  H          0.19350100       0.66233500       0.85425600
   115  H          0.19350100       0.83766500       0.35425600
   116  H          0.80649900       0.33766500       0.14574400
   117  C          0.60643800       0.10554110       0.79587800
   118  C          0.39356200       0.60554110       0.70412200
   119  C          0.39356200       0.89445890       0.20412200
   120  C          0.60643800       0.39445890       0.29587800
   121  C          0.57520800      -0.00098110       0.81470900
   122  C          0.42479200       0.49901890       0.68529100
   123  C          0.42479200       0.00098110       0.18529100
   124  C          0.57520800       0.50098110       0.31470900
   125  H          0.61341400       0.94340500       0.85819200
   126  H          0.38658600       0.44340500       0.64180800
   127  H          0.38658600       0.05659500       0.14180800
   128  H          0.61341400       0.55659500       0.35819200
   129  C          0.48717800       0.97976890       0.76723900
   130  C          0.51282200       0.47976890       0.73276100
   131  C          0.51282200       0.02023110       0.23276100
   132  C          0.48717800       0.52023110       0.26723900
   133  H          0.46070700       0.90976200       0.77519100
   134  H          0.53929300       0.40976200       0.72480900
   135  H          0.53929300       0.09023800       0.22480900
   136  H          0.46070700       0.59023800       0.27519100
   137  C          0.43795800       0.06998110       0.70574800
   138  C          0.56204200       0.56998110       0.79425200
   139  C          0.56204200       0.93001890       0.29425200
   140  C          0.43795800       0.43001890       0.20574800
   141  C          0.30036800       0.14292110       0.59924900
   142  C          0.69963200       0.64292110       0.90075100
   143  C          0.69963200       0.85707890       0.40075100
   144  C          0.30036800       0.35707890       0.09924900
   145  C          0.26213800       0.22214110       0.63405800
   146  C          0.73786200       0.72214110       0.86594200
   147  C          0.73786200       0.77785890       0.36594200
   148  C          0.26213800       0.27785890       0.13405800
   149  C          0.21147800       0.31570110       0.58097800
   150  C          0.78852200       0.81570110       0.91902200
   151  C          0.78852200       0.68429890       0.41902200
   152  C          0.21147800       0.18429890       0.08097800
   153  H          0.18653600       0.37026900       0.60640200
   154  H          0.81346400       0.87026900       0.89359800
   155  H          0.81346400       0.62973100       0.39359800
   156  H          0.18653600       0.12973100       0.10640200
   157  C          0.19691700       0.33012110       0.49035800
   158  C          0.80308300       0.83012110       0.00964200
   159  C          0.80308300       0.66987890       0.50964200
   160  C          0.19691700       0.16987890       0.99035800
   161  C          0.23470900       0.24709120       0.45587900
   162  C          0.76529100       0.74709120       0.04412100
   163  C          0.76529100       0.75290880       0.54412100
   164  C          0.23470900       0.25290880       0.95587900
   165  H          0.22465300       0.25404600       0.39409400
   166  H          0.77534700       0.75404600       0.10590600
   167  H          0.77534700       0.74595400       0.60590600
   168  H          0.22465300       0.24595400       0.89409400
   169  C          0.28650900       0.15477120       0.50955900
   170  C          0.71349100       0.65477120      -0.00955900
   171  C          0.71349100       0.84522880       0.49044100
   172  C          0.28650900       0.34522880       0.00955900
   173  H          0.31220500       0.10020400       0.48493500
   174  H          0.68779500       0.60020400       0.01506500
   175  H          0.68779500       0.89979600       0.51506500
   176  H          0.31220500       0.39979600       0.98493500
   177  C          0.14070700       0.43116110       0.43005800
   178  C          0.85929300       0.93116110       0.06994200
   179  C          0.85929300       0.56883890       0.56994200
   180  C          0.14070700       0.06883890       0.93005800
   181  C          0.19484800       0.50748100       0.39556800
   182  C          0.80515200       0.00748100       0.10443200
   183  C          0.80515200       0.49251900       0.60443200
   184  C          0.19484800      -0.00748100       0.89556800
   185  H          0.24611300       0.54161200       0.44883600
   186  H          0.75388700       0.04161200       0.05116400
   187  H          0.75388700       0.45838800       0.55116400
   188  H          0.24611300       0.95838800       0.94883600
   189  H          0.21659700       0.45661100       0.36129300
   190  H          0.78340300       0.95661100       0.13870700
   191  H          0.78340300       0.54338900       0.63870700
   192  H          0.21659700       0.04338900       0.86129300
   193  N          0.55743700       0.18821100       0.74008800
   194  N          0.44256300       0.68821100       0.75991200
   195  N          0.44256300       0.81178900       0.25991200
   196  N          0.55743700       0.31178900       0.24008800
   197  N          0.46934700       0.17013100       0.69336800
   198  N          0.53065300       0.67013100       0.80663200
   199  N          0.53065300       0.82986900       0.30663200
   200  N          0.46934700       0.32986900       0.19336800
   201  O          0.69519600       0.12442800       0.84060600
   202  O          0.30480400       0.62442800       0.65939400
   203  O          0.30480400       0.87557200       0.15939400
   204  O          0.69519600       0.37557200       0.34060600
   205  O          0.34986600       0.04873800       0.65370600
   206  O          0.65013400       0.54873800       0.84629400
   207  O          0.65013400       0.95126200       0.34629400
   208  O          0.34986600       0.45126200       0.15370600
   209  Cl         0.72640200      -0.01041300       0.70457200
   210  Cl         0.27359800       0.48958700       0.79542800
   211  Cl         0.27359800       0.01041300       0.29542800
   212  Cl         0.72640200       0.51041300       0.20457200
   213  Cl         0.27802200       0.20337300       0.74578200
   214  Cl         0.72197800       0.70337300       0.75421800
   215  Cl         0.72197800       0.79662700       0.25421800
   216  Cl         0.27802200       0.29662700       0.24578200
   217  C          0.49947100       0.36213150       0.92196110
   218  C          0.50052900       0.86213150       0.57803890
   219  C          0.50052900       0.63786850       0.07803890
   220  C          0.49947100       0.13786850       0.42196110
   221  H          0.49589700       0.44899600       0.91206600
   222  H          0.50410300       0.94899600       0.58793400
   223  H          0.50410300       0.55100400       0.08793400
   224  H          0.49589700       0.05100400       0.41206600
   225  H          0.46498600       0.32326800       0.86175600
   226  H          0.53501400       0.82326800       0.63824400
   227  H          0.53501400       0.67673200       0.13824400
   228  H          0.46498600       0.17673200       0.36175600
   229  C          0.59360100       0.32292140       0.96200110
   230  C          0.40639900       0.82292140       0.53799890
   231  C          0.40639900       0.67707860       0.03799890
   232  C          0.59360100       0.17707860       0.46200110
   233  H          0.61693100       0.34259600       0.91866600
   234  H          0.38306900       0.84259600       0.58133400
   235  H          0.38306900       0.65740400       0.08133400
   236  H          0.61693100       0.15740400       0.41866600
   237  H          0.62874700       0.36630500       0.01997400
   238  H          0.37125300       0.86630500       0.48002600
   239  H          0.37125300       0.63369500       0.98002600
   240  H          0.62874700       0.13369500       0.51997400
   241  C          0.56596100       0.16985140       0.04024100
   242  C          0.43403900       0.66985140       0.45975900
   243  C          0.43403900       0.83014860       0.95975900
   244  C          0.56596100       0.33014860       0.54024100
   245  H          0.60041400       0.20947600       0.10013200
   246  H          0.39958600       0.70947600       0.39986800
   247  H          0.39958600       0.79052400       0.89986800
   248  H          0.60041400       0.29052400       0.60013200
   249  H          0.56991500       0.08311700       0.05081200
   250  H          0.43008500       0.58311700       0.44918800
   251  H          0.43008500       0.91688300       0.94918800
   252  H          0.56991500       0.41688300       0.55081200
   253  C          0.47166110       0.20838150       0.00025120
   254  C          0.52833890       0.70838150       0.49974880
   255  C          0.52833890       0.79161850      -0.00025120
   256  C          0.47166110       0.29161850       0.50025120
   257  H          0.43648100       0.16451700       0.94252100
   258  H          0.56351900       0.66451700       0.55747900
   259  H          0.56351900       0.83548300       0.05747900
   260  H          0.43648100       0.33548300       0.44252100
   261  H          0.44853200       0.18915300       0.04383800
   262  H          0.55146800       0.68915300       0.45616200
   263  H          0.55146800       0.81084700       0.95616200
   264  H          0.44853200       0.31084700       0.54383800
   265  O          0.46365800       0.33207110       0.98220900
   266  O          0.53634200       0.83207110       0.51779100
   267  O          0.53634200       0.66792890       0.01779100
   268  O          0.46365800       0.16792890       0.48220900
   269  O          0.60164800       0.19927100       0.97949800
   270  O          0.39835200       0.69927100       0.52050200
   271  O          0.39835200       0.80072900       0.02050200
   272  O          0.60164800       0.30072900       0.47949800
   273  C          0.97655100       0.61687130       0.00149110
   274  C          0.02344900       0.11687130       0.49850890
   275  C          0.02344900       0.38312870      -0.00149110
   276  C          0.97655100       0.88312870       0.50149110
   277  H          0.93561000       0.68357700       0.97242800
   278  H          0.06439000       0.18357700       0.52757200
   279  H          0.06439000       0.31642300       0.02757200
   280  H          0.93561000       0.81642300       0.47242800
   281  H          0.02248000       0.64408200       0.06193000
   282  H          0.97752000       0.14408200       0.43807000
   283  H          0.97752000       0.35591800       0.93807000
   284  H          0.02248000       0.85591800       0.56193000
   285  C          0.07223100       0.48565150       0.98501110
   286  C          0.92776900       0.98565150       0.51498890
   287  C          0.92776900       0.51434850       0.01498890
   288  C          0.07223100       0.01434850       0.48501110
   289  H          0.12075000       0.50933000       0.04500200
   290  H          0.87925000       0.00933000       0.45499800
   291  H          0.87925000       0.49067000       0.95499800
   292  H          0.12075000      -0.00933000       0.54500200
   293  H          0.09782400       0.46091500       0.94465100
   294  H          0.90217600       0.96091500       0.55534900
   295  H          0.90217600       0.53908500       0.05534900
   296  H          0.09782400       0.03908500       0.44465100
   297  O          0.01583800       0.58363100       0.94521700
   298  O          0.98416200       0.08363100       0.55478300
   299  O          0.98416200       0.41636900       0.05478300
   300  O          0.01583800       0.91636900       0.44521700
