data_MAFMAL
_symmetry_space_group_name_H-M    'P1'
_symmetry_Int_Tables_number       1
loop_
_symmetry_equiv_pos_site_id
_symmetry_equiv_pos_as_xyz
1 x,y,z
_cell_length_a                   6.31519
_cell_length_b                   8.581512
_cell_length_c                   11.030615
_cell_angle_alpha                103.4855
_cell_angle_beta                 96.0476
_cell_angle_gamma                93.1835
loop_
_atom_site_label
_atom_site_type_symbol
_atom_site_fract_x
_atom_site_fract_y
_atom_site_fract_z
     1  I          0.16848300       0.39776200       0.20376200
     2  I          0.83151700       0.60223800       0.79623800
     3  I          0.36556300       0.86728200       0.70772200
     4  I          0.63443700       0.13271800       0.29227800
     5  F          0.14283000       0.59822000       0.48054190
     6  F          0.85717000       0.40178000       0.51945810
     7  F          0.79083000       0.92482000       0.57638190
     8  F          0.20917000       0.07518000       0.42361810
     9  F          0.89913000       0.78963000       0.34652000
    10  F          0.10087000       0.21037000       0.65348000
    11  F          0.62963000       0.56812000       0.18130190
    12  F          0.37037000       0.43188000       0.81869810
    13  C          0.37915000       0.57644000       0.32803000
    14  C          0.62085000       0.42356000       0.67197000
    15  C          0.32955000       0.64724000       0.44703000
    16  C          0.67045000       0.35276000       0.55297000
    17  C          0.46245000       0.76464000       0.53333000
    18  C          0.53755000       0.23536000       0.46667000
    19  C          0.65525000       0.81074000       0.49793000
    20  C          0.34475000       0.18926000       0.50207000
    21  C          0.71195000       0.74214000       0.38033000
    22  C          0.28805000       0.25786000       0.61967000
    23  C          0.57285000       0.62784000       0.29643000
    24  C          0.42715000       0.37216000       0.70357000
    25  N          0.89756000       0.14353000       0.01352000
    26  N          0.10244000       0.85647000       0.98648000
    27  N          0.80215000       0.00633000       0.04953000
    28  N          0.19785000      -0.00633000       0.95047000
    29  C          0.72644000       0.23504000       0.97337000
    30  C          0.27356000       0.76496000       0.02663000
    31  H          0.78873700       0.32927500       0.94981500
    32  H          0.21126300       0.67072500       0.05018500
    33  H          0.64099200       0.27012900       0.04240000
    34  H          0.35900800       0.72987100       0.95760000
    35  H          0.63513600       0.16697700       0.90089700
    36  H          0.36486400       0.83302300       0.09910300
    37  C          0.96895000       0.91196000       0.08793000
    38  C          0.03105000       0.08804000       0.91207000
    39  H          0.90311800       0.81761800       0.11146000
    40  H          0.09688200       0.18238200       0.88854000
    41  H          0.06035500       0.97788900       0.16271900
    42  H          0.93964500       0.02211100       0.83728100
    43  H          0.72930000       0.95450000      -0.01240000
    44  H          0.27070000       0.04550000       0.01240000
