data_MAFMEP
_symmetry_space_group_name_H-M    'P1'
_symmetry_Int_Tables_number       1
loop_
_symmetry_equiv_pos_site_id
_symmetry_equiv_pos_as_xyz
1 x,y,z
_cell_length_a                   8.63917
_cell_length_b                   8.81698
_cell_length_c                   9.56198
_cell_angle_alpha                81.6383
_cell_angle_beta                 69.7623
_cell_angle_gamma                63.3343
loop_
_atom_site_label
_atom_site_type_symbol
_atom_site_fract_x
_atom_site_fract_y
_atom_site_fract_z
     1  I          0.83849400       0.21154400       0.21521300
     2  I          0.16150600       0.78845600       0.78478700
     3  F          0.85844000       0.54134000       0.30053000
     4  F          0.14156000       0.45866000       0.69947000
     5  F          0.97344000       0.76363000       0.13653000
     6  F          0.02656000       0.23637000       0.86347000
     7  C          0.93746000       0.38185000       0.08745000
     8  C          0.06254000       0.61815000       0.91255000
     9  C          0.92776000       0.51776000       0.15165000
    10  C          0.07224000       0.48224000       0.84835000
    11  C          0.98706000       0.63375000       0.06665000
    12  C          0.01294000       0.36625000       0.93335000
    13  N          0.66215000       0.95395000       0.53294000
    14  N          0.33785000       0.04605000       0.46706000
    15  N          0.65155000       0.00895000       0.38524000
    16  N          0.34845000      -0.00895000       0.61476000
    17  C          0.53626000       0.87484000       0.60375000
    18  C          0.46374000       0.12516000       0.39625000
    19  H          0.57391000       0.77349200       0.54484800
    20  H          0.42609000       0.22650800       0.45515200
    21  H          0.54376800       0.83701900       0.70479100
    22  H          0.45623200       0.16298100       0.29520900
    23  C          0.85116000       0.83374000       0.51965000
    24  C          0.14884000       0.16626000       0.48035000
    25  H          0.88581100       0.73419800       0.46157400
    26  H          0.11418900       0.26580200       0.53842600
    27  H          0.86156000       0.79841200       0.61925900
    28  H          0.13844000       0.20158800       0.38074100
    29  H          0.93243700       0.88853800       0.46926500
    30  H          0.06756300       0.11146200       0.53073500
    31  H          0.68470000       0.92040000       0.33650000
    32  H          0.31530000       0.07960000       0.66350000
    33  H          0.31670000       0.07960000       0.66450000
    34  H          0.68330000       0.92040000       0.33550000
    35  I          0.59856400       0.20666400       0.73374300
    36  I          0.40143600       0.79333600       0.26625700
    37  F          0.73834000       0.49433000       0.72373000
    38  F          0.26166000       0.50567000       0.27627000
    39  F          0.34754000       0.27743000       0.07523000
    40  F          0.65246000       0.72257000       0.92477000
    41  C          0.61986000       0.49436000       0.86035000
    42  C          0.38014000       0.50564000       0.13965000
    43  C          0.54386000       0.37956000       0.89375000
    44  C          0.45614000       0.62044000       0.10625000
    45  C          0.42496000       0.38685000       0.03565000
    46  C          0.57504000       0.61315000       0.96435000
