data_MAFNEQ
_symmetry_space_group_name_H-M    'P1'
_symmetry_Int_Tables_number       1
loop_
_symmetry_equiv_pos_site_id
_symmetry_equiv_pos_as_xyz
1 x,y,z
_cell_length_a                   7.541414
_cell_length_b                   22.6184
_cell_length_c                   9.244518
_cell_angle_alpha                90.0
_cell_angle_beta                 96.6416
_cell_angle_gamma                90.0
loop_
_atom_site_label
_atom_site_type_symbol
_atom_site_fract_x
_atom_site_fract_y
_atom_site_fract_z
     1  I          0.68284200       0.42274200       0.08756200
     2  I          0.81715800       0.92274200       0.41243800
     3  I          0.31715800       0.57725800       0.91243800
     4  I          0.18284200       0.07725800       0.58756200
     5  I          0.80752200       0.57448200       0.21615200
     6  I          0.69247800       0.07448200       0.28384800
     7  I          0.19247800       0.42551800       0.78384800
     8  I          0.30752200       0.92551800       0.71615200
     9  F          0.51462000       0.61410600       0.40726170
    10  F         -0.01462000       0.11410600       0.09273830
    11  F          0.48538000       0.38589400       0.59273830
    12  F          0.01462000       0.88589400       0.90726170
    13  F          0.21092000       0.56460700       0.47518170
    14  F          0.28908000       0.06460700       0.02481830
    15  F          0.78908000       0.43539300       0.52481830
    16  F          0.71092000       0.93539300       0.97518170
    17  F          0.11662000       0.45393700       0.37926180
    18  F          0.38338000       0.95393700       0.12073820
    19  F          0.88338000       0.54606300       0.62073820
    20  F          0.61662000       0.04606300       0.87926180
    21  F          0.32462000       0.39329700       0.21604180
    22  F          0.17538000       0.89329700       0.28395820
    23  F          0.67538000       0.60670300       0.78395820
    24  F          0.82462000       0.10670300       0.71604180
    25  C          0.53313000       0.47272100       0.22133000
    26  C          0.96687000       0.97272100       0.27867000
    27  C          0.46687000       0.52727900       0.77867000
    28  C          0.03313000       0.02727900       0.72133000
    29  C          0.58063000       0.52969100       0.26962000
    30  C          0.91937000       0.02969100       0.23038000
    31  C          0.41937000       0.47030900       0.73038000
    32  C          0.08063000       0.97030900       0.76962000
    33  C          0.47043000       0.55972100       0.35453000
    34  C          0.02957000       0.05972100       0.14547000
    35  C          0.52957000       0.44027900       0.64547000
    36  C          0.97043000       0.94027900       0.85453000
    37  C          0.31393000       0.53493110       0.39113000
    38  C          0.18607000       0.03493110       0.10887000
    39  C          0.68607000       0.46506890       0.60887000
    40  C          0.81393000       0.96506890       0.89113000
    41  C          0.26583000       0.47888110       0.34243000
    42  C          0.23417000       0.97888110       0.15757000
    43  C          0.73417000       0.52111890       0.65757000
    44  C          0.76583000       0.02111890       0.84243000
    45  C          0.37593000       0.44806100       0.25873000
    46  C          0.12407000       0.94806100       0.24127000
    47  C          0.62407000       0.55193900       0.74127000
    48  C          0.87593000       0.05193900       0.75873000
    49  I          0.85777200       0.32085200       0.84743800
    50  I          0.64222800       0.82085200       0.65256200
    51  I          0.14222800       0.67914800       0.15256200
    52  I          0.35777200       0.17914800       0.34743800
    53  N          0.14163000       0.72911900       0.59962000
    54  N          0.35837000       0.22911900       0.90038000
    55  N          0.85837000       0.27088100       0.40038000
    56  N          0.64163000       0.77088100       0.09962000
    57  C          0.30653000       0.69833100       0.57963000
    58  C          0.19347000       0.19833100       0.92037000
    59  C          0.69347000       0.30166900       0.42037000
    60  C          0.80653000       0.80166900       0.07963000
    61  H          0.29688300       0.68121600       0.48160500
    62  H          0.20311700       0.18121600       0.01839500
    63  H          0.70311700       0.31878400       0.51839500
    64  H          0.79688300       0.81878400       0.98160500
    65  H          0.32728400       0.66674800       0.65212700
    66  H          0.17271600       0.16674800       0.84787300
    67  H          0.67271600       0.33325200       0.34787300
    68  H          0.82728400       0.83325200       0.15212700
    69  H          0.40633000       0.72631300       0.59157100
    70  H          0.09367000       0.22631300       0.90842900
    71  H          0.59367000       0.27368700       0.40842900
    72  H          0.90633000       0.77368700       0.09157100
    73  C          0.10643000       0.78025110       0.49703000
    74  C          0.39357000       0.28025110       0.00297000
    75  C          0.89357000       0.21974890       0.50297000
    76  C          0.60643000       0.71974890      -0.00297000
    77  H          0.09637400       0.76591800       0.39638600
    78  H          0.40362600       0.26591800       0.10361400
    79  H          0.90362600       0.23408200       0.60361400
    80  H          0.59637400       0.73408200       0.89638600
    81  H          0.20494900       0.80860100       0.51303300
    82  H          0.29505100       0.30860100      -0.01303300
    83  H          0.79505100       0.19139900       0.48696700
    84  H          0.70494900       0.69139900       0.01303300
    85  H         -0.00531200       0.79966500       0.51470400
    86  H          0.50531200       0.29966500      -0.01470400
    87  H          0.00531200       0.20033500       0.48529600
    88  H          0.49468800       0.70033500       0.01470400
    89  C         -0.00553000       0.68443110       0.57623000
    90  C          0.50553000       0.18443110       0.92377000
    91  C          0.00553000       0.31556890       0.42377000
    92  C          0.49447000       0.81556890       0.07623000
    93  H         -0.01352500       0.66940300       0.47627800
    94  H          0.51352500       0.16940300       0.02372200
    95  H          0.01352500       0.33059700       0.52372200
    96  H          0.48647500       0.83059700       0.97627800
    97  H          0.88106100       0.70305000       0.59240700
    98  H          0.61893900       0.20305000       0.90759300
    99  H          0.11893900       0.29695000       0.40759300
   100  H          0.38106100       0.79695000       0.09240700
   101  H          0.01953700       0.65162600       0.64480000
   102  H          0.48046300       0.15162600       0.85520000
   103  H         -0.01953700       0.34837400       0.35520000
   104  H          0.51953700       0.84837400       0.14480000
   105  C          0.15794000       0.75091110       0.75303000
   106  C          0.34206000       0.25091110       0.74697000
   107  C          0.84206000       0.24908890       0.24697000
   108  C          0.65794000       0.74908890       0.25303000
   109  H          0.25529400       0.77972100       0.76813900
   110  H          0.24470600       0.27972100       0.73186100
   111  H          0.74470600       0.22027900       0.23186100
   112  H          0.75529400       0.72027900       0.26813900
   113  H          0.18317500       0.71755900       0.81982500
   114  H          0.31682500       0.21755900       0.68017500
   115  H          0.81682500       0.28244100       0.18017500
   116  H          0.68317500       0.78244100       0.31982500
   117  H          0.04573000       0.76977600       0.77161600
   118  H          0.45427000       0.26977600       0.72838400
   119  H          0.95427000       0.23022400       0.22838400
   120  H          0.54573000       0.73022400       0.27161600
