data_MAMPUM01
_symmetry_space_group_name_H-M    'P1'
_symmetry_Int_Tables_number       1
loop_
_symmetry_equiv_pos_site_id
_symmetry_equiv_pos_as_xyz
1 x,y,z
_cell_length_a                   12.3992
_cell_length_b                   3.85337
_cell_length_c                   16.9572
_cell_angle_alpha                90.0
_cell_angle_beta                 107.8906
_cell_angle_gamma                90.0
loop_
_atom_site_label
_atom_site_type_symbol
_atom_site_fract_x
_atom_site_fract_y
_atom_site_fract_z
     1  Cl         0.64457500       0.70218000       0.67381300
     2  Cl         0.85542500       0.20218000       0.82618700
     3  Cl         0.35542500       0.29782000       0.32618700
     4  Cl         0.14457500       0.79782000       0.17381300
     5  O          0.39311000       0.68404000       0.59461000
     6  O          0.10689000       0.18404000       0.90539000
     7  O          0.60689000       0.31596000       0.40539000
     8  O          0.89311000       0.81596000       0.09461000
     9  O          0.73101000       0.04786000       0.55211000
    10  O          0.76899000       0.54786000       0.94789000
    11  O          0.26899000       0.95214000       0.44789000
    12  O          0.23101000       0.45214000       0.05211000
    13  C          0.44572000       0.83032000       0.55331000
    14  C          0.05428000       0.33032000       0.94669000
    15  C          0.55428000       0.16968000       0.44669000
    16  C          0.94572000       0.66968000       0.05331000
    17  C          0.56761000       0.86453000       0.57891000
    18  C          0.93239000       0.36453000       0.92109000
    19  C          0.43239000       0.13547000       0.42109000
    20  C          0.06761000       0.63547000       0.07891000
    21  C          0.62082000       0.01967000       0.52941000
    22  C          0.87918000       0.51967000       0.97059000
    23  C          0.37918000      -0.01967000       0.47059000
    24  C          0.12082000       0.48033000       0.02941000
    25  H          0.74730000       0.10100000       0.51630000
    26  H          0.75270000       0.60100000       0.98370000
    27  H          0.25270000       0.89900000       0.48370000
    28  H          0.24730000       0.39900000       0.01630000
    29  N          0.89561000       0.37216000       0.50391000
    30  N          0.60439000       0.87216000      -0.00391000
    31  N          0.10439000       0.62784000       0.49609000
    32  N          0.39561000       0.12784000       0.00391000
    33  C          0.96831000       0.52637000       0.56971000
    34  C          0.53169000       0.02637000       0.93029000
    35  C          0.03169000       0.47363000       0.43029000
    36  C          0.46831000      -0.02637000       0.06971000
    37  C          0.92541000       0.34177000       0.43421000
    38  C          0.57459000       0.84177000       0.06579000
    39  C          0.07459000       0.65823000       0.56579000
    40  C          0.42541000       0.15823000       0.93421000
    41  C          0.85112000       0.17418000       0.36351000
    42  C          0.64888000       0.67418000       0.13649000
    43  C          0.14888000       0.82582000       0.63649000
    44  C          0.35112000       0.32582000       0.86351000
    45  C          0.94092000       0.56208000       0.64491000
    46  C          0.55908000       0.06208000       0.85509000
    47  C          0.05908000       0.43792000       0.35509000
    48  C          0.44092000       0.93792000       0.14491000
    49  C          0.88082000       0.14848000       0.29321000
    50  C          0.61918000       0.64848000       0.20679000
    51  C          0.11918000       0.85152000       0.70679000
    52  C          0.38082000       0.35152000       0.79321000
    53  C          0.01452000       0.71878000       0.71111000
    54  C          0.48548000       0.21878000       0.78889000
    55  C         -0.01452000       0.28122000       0.28889000
    56  C          0.51452000       0.78122000       0.21111000
    57  H         -0.00270000       0.74100000       0.76530000
    58  H          0.50270000       0.24100000       0.73470000
    59  H          0.00270000       0.25900000       0.23470000
    60  H          0.49730000       0.75900000       0.26530000
    61  H          0.87530000       0.47100000       0.65030000
    62  H          0.62470000      -0.02900000       0.84970000
    63  H          0.12470000       0.52900000       0.34970000
    64  H          0.37530000       0.02900000       0.15030000
    65  H          0.78930000       0.08100000       0.36930000
    66  H          0.71070000       0.58100000       0.13070000
    67  H          0.21070000       0.91900000       0.63070000
    68  H          0.28930000       0.41900000       0.86930000
    69  H          0.84130000       0.06100000       0.25030000
    70  H          0.65870000       0.56100000       0.24970000
    71  H          0.15870000       0.93900000       0.74970000
    72  H          0.34130000       0.43900000       0.75030000
