data_MANWUV
_symmetry_space_group_name_H-M    'P1'
_symmetry_Int_Tables_number       1
loop_
_symmetry_equiv_pos_site_id
_symmetry_equiv_pos_as_xyz
1 x,y,z
_cell_length_a                   11.97285
_cell_length_b                   14.89836
_cell_length_c                   18.48458
_cell_angle_alpha                87.7062
_cell_angle_beta                 74.7752
_cell_angle_gamma                87.6012
loop_
_atom_site_label
_atom_site_type_symbol
_atom_site_fract_x
_atom_site_fract_y
_atom_site_fract_z
     1  P          0.17465700       0.33243500       0.26470400
     2  P          0.82534300       0.66756500       0.73529600
     3  N          0.15933000       0.28312190       0.19122140
     4  N          0.84067000       0.71687810       0.80877860
     5  N          0.11192000       0.25618180       0.32588130
     6  N          0.88808000       0.74381820       0.67411870
     7  H          0.11030000       0.25220000       0.19520000
     8  H          0.88970000       0.74780000       0.80480000
     9  H          0.10930000       0.21020000       0.31351800
    10  H          0.89070000       0.78980000       0.68648200
    11  C          0.21993000       0.30261190       0.11526160
    12  C          0.78007000       0.69738810       0.88473840
    13  C          0.33493000       0.32761190       0.09809160
    14  C          0.66507000       0.67238810       0.90190840
    15  C          0.38863000       0.34552000       0.02272180
    16  C          0.61137000       0.65448000       0.97727820
    17  H          0.46690000       0.36320000       0.00850000
    18  H          0.53310000       0.63680000       0.99150000
    19  C          0.32993000       0.33772000       0.96820810
    20  C          0.67007000       0.66228000       0.03179190
    21  H          0.36730000       0.35220000       0.91730000
    22  H          0.63270000       0.64780000       0.08270000
    23  C          0.21793000       0.30912000       0.98700830
    24  C          0.78207000       0.69088000       0.01299170
    25  H          0.17920000       0.30260000       0.94880000
    26  H          0.82080000       0.69740000       0.05120000
    27  C          0.16113000       0.28992000       0.06088170
    28  C          0.83887000       0.71008000       0.93911830
    29  C          0.39903000       0.32752000       0.15731170
    30  C          0.60097000       0.67248000       0.84268830
    31  C          0.41773000       0.24612000       0.19461180
    32  C          0.58227000       0.75388000       0.80538820
    33  C          0.47333000       0.24802000       0.25152000
    34  C          0.52667000       0.75198000       0.74848000
    35  H          0.48280000       0.19360000       0.27810000
    36  H          0.51720000       0.80640000       0.72190000
    37  C          0.51553000       0.32573000       0.27092000
    38  C          0.48447000       0.67427000       0.72908000
    39  C          0.49823000       0.40462000       0.23242000
    40  C          0.50177000       0.59538000       0.76758000
    41  H          0.52750000       0.45870000       0.24450000
    42  H          0.47250000       0.54130000       0.75550000
    43  C          0.43973000       0.40752000       0.17693180
    44  C          0.56027000       0.59248000       0.82306820
    45  C          0.04443000       0.24882000       0.08481160
    46  C          0.95557000       0.75118000       0.91518840
    47  C          0.94507000       0.30052000       0.11772180
    48  C          0.05493000       0.69948000       0.88227820
    49  C          0.84137000       0.25802000       0.14472000
    50  C          0.15863000       0.74198000       0.85528000
    51  H          0.77380000       0.29280000       0.16710000
    52  H          0.22620000       0.70720000       0.83290000
    53  C          0.83297000       0.16642000       0.14012000
    54  C          0.16703000       0.83358000       0.85988000
    55  C          0.93127000       0.11672000       0.10762000
    56  C          0.06873000       0.88328000       0.89238000
    57  H          0.92630000       0.05370000       0.10390000
    58  H          0.07370000       0.94630000       0.89610000
    59  C          0.03783000       0.15612000       0.07998180
    60  C          0.96217000       0.84388000       0.92001820
    61  C          0.38293000       0.15702000       0.17292000
    62  C          0.61707000       0.84298000       0.82708000
    63  H          0.43510000       0.10910000       0.18400000
    64  H          0.56490000       0.89090000       0.81600000
    65  H          0.38750000       0.15870000       0.11920000
    66  H          0.61250000       0.84130000       0.88080000
    67  H          0.30320000       0.14520000       0.20150000
    68  H          0.69680000       0.85480000       0.79850000
    69  C          0.58174000       0.32403000       0.33022000
    70  C          0.41826000       0.67597000       0.66978000
    71  H          0.64520000       0.27890000       0.31810000
    72  H          0.35480000       0.72110000       0.68190000
    73  H          0.52950000       0.30890000       0.37920000
    74  H          0.47050000       0.69110000       0.62080000
    75  H          0.61340000       0.38330000       0.33180000
    76  H          0.38660000       0.61670000       0.66820000
    77  C          0.41793000       0.49632000       0.14042000
    78  C          0.58207000       0.50368000       0.85958000
    79  H          0.43050000       0.54540000       0.17080000
    80  H          0.56950000       0.45460000       0.82920000
    81  H          0.33790000       0.50010000       0.13630000
    82  H          0.66210000       0.49990000       0.86370000
    83  H          0.47120000       0.50130000       0.09020000
    84  H          0.52880000       0.49870000       0.90980000
    85  C          0.95067000       0.40052000       0.12452000
    86  C          0.04933000       0.59948000       0.87548000
    87  H         -0.00010000       0.41280000       0.15760000
    88  H          0.00010000       0.58720000       0.84240000
    89  H          0.87250000       0.42580000       0.14560000
    90  H          0.12750000       0.57420000       0.85440000
    91  H          0.98330000       0.42810000       0.07480000
    92  H          0.01670000       0.57190000       0.92520000
    93  C          0.71816000       0.12203000       0.17033000
    94  C          0.28184000       0.87797000       0.82967000
    95  H          0.69360000       0.12680000       0.22500000
    96  H          0.30640000       0.87320000       0.77500000
    97  H          0.72650000       0.05850000       0.15740000
    98  H          0.27350000       0.94150000       0.84260000
    99  H          0.66000000       0.15200000       0.14820000
   100  H          0.34000000       0.84800000       0.85180000
   101  C          0.14333000       0.09742000       0.04812000
   102  C          0.85667000       0.90258000       0.95188000
   103  H          0.11970000       0.03580000       0.04470000
   104  H          0.88030000       0.96420000       0.95530000
   105  H          0.19580000       0.09760000       0.08080000
   106  H          0.80420000       0.90240000       0.91920000
   107  H          0.18300000       0.12040000      -0.00210000
   108  H          0.81700000       0.87960000       0.00210000
   109  C          0.06213000       0.25669190       0.40415150
   110  C          0.93787000       0.74330810       0.59584850
   111  C          0.02903000       0.17368190       0.44005160
   112  C          0.97097000       0.82631810       0.55994840
   113  C          0.97737000       0.17282000       0.51669170
   114  C          0.02263000       0.82718000       0.48330830
   115  H          0.95420000       0.11750000       0.54260000
   116  H          0.04580000       0.88250000       0.45740000
   117  C          0.95967000       0.25152000       0.55547180
   118  C          0.04033000       0.74848000       0.44452820
   119  H          0.92580000       0.24980000       0.60810000
   120  H          0.07420000       0.75020000       0.39190000
   121  C          0.99057000       0.33342000       0.51850170
   122  C          0.00943000       0.66658000       0.48149830
   123  H          0.97650000       0.38720000       0.54580000
   124  H          0.02350000       0.61280000       0.45420000
   125  C          0.04203000       0.33713190       0.44200160
   126  C          0.95797000       0.66286810       0.55799840
   127  C          0.05033000       0.09262190       0.39235160
   128  C          0.94967000       0.90737810       0.60764840
   129  C          0.97907000       0.07842000       0.34546190
   130  C          0.02093000       0.92158000       0.65453810
   131  C          0.01343000       0.01452000       0.29025190
   132  C          0.98657000       0.98548000       0.70974810
   133  H          0.96560000       0.00510000       0.25770000
   134  H          0.03440000      -0.00510000       0.74230000
   135  C          0.11583000       0.96432000       0.28195190
   136  C          0.88417000       0.03568000       0.71804810
   137  C          0.18193000       0.97622000       0.33100190
   138  C          0.81807000       0.02378000       0.66899810
   139  H          0.25000000       0.93970000       0.32720000
   140  H          0.75000000       0.06030000       0.67280000
   141  C          0.15233000       0.04037190       0.38634170
   142  C          0.84767000       0.95962810       0.61365830
   143  C          0.07223000       0.42222180       0.39764160
   144  C          0.92777000       0.57777820       0.60235840
   145  C          0.17973000       0.46071190       0.39015160
   146  C          0.82027000       0.53928810       0.60984840
   147  C          0.20943000       0.53489190       0.34130160
   148  C          0.79057000       0.46510810       0.65869840
   149  H          0.28170000       0.56160000       0.33650000
   150  H          0.71830000       0.43840000       0.66350000
   151  C          0.13723000       0.57050190       0.29984160
   152  C          0.86277000       0.42949810       0.70015840
   153  C          0.03113000       0.53222000       0.30833180
   154  C          0.96887000       0.46778000       0.69166820
   155  H          0.98050000       0.55680000       0.28020000
   156  H          0.01950000       0.44320000       0.71980000
   157  C         -0.00413000       0.45892000       0.35672170
   158  C          0.00413000       0.54108000       0.64327830
   159  C          0.86687000       0.13193000       0.35222000
   160  C          0.13313000       0.86807000       0.64778000
   161  H          0.80980000       0.11260000       0.39810000
   162  H          0.19020000       0.88740000       0.60190000
   163  H          0.83750000       0.12170000       0.30860000
   164  H          0.16250000       0.87830000       0.69140000
   165  H          0.88060000       0.19600000       0.35440000
   166  H          0.11940000       0.80400000       0.64560000
   167  C          0.15464000       0.89962000       0.21832000
   168  C          0.84536000       0.10038000       0.78168000
   169  H          0.08790000       0.86670000       0.21330000
   170  H          0.91210000       0.13330000       0.78670000
   171  H          0.21320000       0.85690000       0.22890000
   172  H          0.78680000       0.14310000       0.77110000
   173  H          0.18770000       0.93330000       0.17140000
   174  H          0.81230000       0.06670000       0.82860000
   175  C          0.22863000       0.05393000       0.43702000
   176  C          0.77137000       0.94607000       0.56298000
   177  H          0.25690000       0.11520000       0.42960000
   178  H          0.74310000       0.88480000       0.57040000
   179  H          0.29460000       0.01080000       0.42530000
   180  H          0.70540000       0.98920000       0.57470000
   181  H          0.18450000       0.04450000       0.48930000
   182  H          0.81550000       0.95550000       0.51070000
   183  C          0.26283000       0.42112000       0.43102000
   184  C          0.73717000       0.57888000       0.56898000
   185  H          0.23400000       0.43330000       0.48460000
   186  H          0.76600000       0.56670000       0.51540000
   187  H          0.33850000       0.44790000       0.41110000
   188  H          0.66150000       0.55210000       0.58890000
   189  H          0.27040000       0.35600000       0.42430000
   190  H          0.72960000       0.64400000       0.57570000
   191  C          0.17193000       0.65032000       0.24763190
   192  C          0.82807000       0.34968000       0.75236810
   193  H          0.20710000       0.62970000       0.19680000
   194  H          0.79290000       0.37030000       0.80320000
   195  H          0.22800000       0.68480000       0.26440000
   196  H          0.77200000       0.31520000       0.73560000
   197  H          0.10320000       0.68860000       0.24770000
   198  H          0.89680000       0.31140000       0.75230000
   199  C          0.87897000       0.41972000       0.36452000
   200  C          0.12103000       0.58028000       0.63548000
   201  H          0.88920000       0.36100000       0.34110000
   202  H          0.11080000       0.63900000       0.65890000
   203  H          0.83300000       0.46020000       0.33970000
   204  H          0.16700000       0.53980000       0.66030000
   205  H          0.83870000       0.41250000       0.41780000
   206  H          0.16130000       0.58750000       0.58220000
   207  C          0.74544000       0.79693000       0.40642000
   208  C          0.25456000       0.20307000       0.59358000
   209  B          0.81184000       0.77283000       0.31623000
   210  B          0.18816000       0.22717000       0.68377000
   211  B          0.74024000       0.69093000       0.38142000
   212  B          0.25976000       0.30907000       0.61858000
   213  B          0.62164000       0.74423000       0.44562000
   214  B          0.37836000       0.25577000       0.55438000
   215  B          0.62024000       0.85963000       0.42093000
   216  B          0.37976000       0.14037000       0.57907000
   217  B          0.73714000       0.87663000       0.34053000
   218  B          0.26286000       0.12337000       0.65947000
   219  B          0.71473000       0.70072000       0.29182190
   220  B          0.28527000       0.29928000       0.70817810
   221  B          0.59804000       0.68243000       0.37222000
   222  B          0.40196000       0.31757000       0.62778000
   223  B          0.52303000       0.78762000       0.39582000
   224  B          0.47697000       0.21238000       0.60418000
   225  B          0.59613000       0.87022000       0.33012000
   226  B          0.40387000       0.12978000       0.66988000
   227  B          0.71463000       0.81652000       0.26602000
   228  B          0.28537000       0.18348000       0.73398000
   229  B          0.58093000       0.76092000       0.29982000
   230  B          0.41907000       0.23908000       0.70018000
   231  Br         0.76840300       0.60794200       0.21749719
   232  Br         0.23159700       0.39205800       0.78250281
   233  Br         0.51906500       0.57028300       0.39251300
   234  Br         0.48093500       0.42971700       0.60748700
   235  Br         0.35744300       0.79514300       0.44181200
   236  Br         0.64255700       0.20485700       0.55818800
   237  Br         0.51435400       0.97447300       0.29983300
   238  Br         0.48564600       0.02552700       0.70016700
   239  Br         0.77338400       0.85859300       0.16308200
   240  Br         0.22661600       0.14140700       0.83691800
   241  Br         0.48218400       0.73980300       0.23471300
   242  Br         0.51781600       0.26019700       0.76528700
   243  H          0.90440000       0.76820000       0.29820000
   244  H          0.09560000       0.23180000       0.70180000
   245  H          0.79130000       0.63720000       0.39741900
   246  H          0.20870000       0.36280000       0.60258100
   247  H          0.59940000       0.72030000       0.50120000
   248  H          0.40060000       0.27970000       0.49880000
   249  H          0.59540000       0.90730000       0.46520000
   250  H          0.40460000       0.09270000       0.53480000
   251  H          0.78540000       0.93830000       0.33720000
   252  H          0.21460000       0.06170000       0.66280000
   253  H          0.79140000       0.80630000       0.43530000
   254  H          0.20860000       0.19370000       0.56470000
   255  C          0.18454000       0.75803000       0.04343000
   256  C          0.81546000       0.24197000       0.95657000
   257  H          0.18710000       0.82120000       0.04730000
   258  H          0.81290000       0.17880000       0.95270000
   259  C          0.28124000       0.71123000       0.00473000
   260  C          0.71876000       0.28877000      -0.00473000
   261  H          0.35050000       0.74140000       0.98170000
   262  H          0.64950000       0.25860000       0.01830000
   263  C          0.27624000       0.61963000      -0.00023000
   264  C          0.72376000       0.38037000       0.00023000
   265  H          0.34260000       0.58640000       0.97280000
   266  H          0.65740000       0.41360000       0.02720000
   267  C          0.17754000       0.57603000       0.03312000
   268  C          0.82246000       0.42397000       0.96688000
   269  H          0.17520000       0.51260000       0.02980000
   270  H          0.82480000       0.48740000       0.97020000
   271  C          0.08134000       0.62373000       0.07152000
   272  C          0.91866000       0.37627000       0.92848000
   273  H          0.01220000       0.59330000       0.09480000
   274  H          0.98780000       0.40670000       0.90520000
   275  C          0.08434000       0.71513000       0.07632000
   276  C          0.91566000       0.28487000       0.92368000
   277  H          0.01740000       0.74840000       0.10220000
   278  H          0.98260000       0.25160000       0.89780000
   279  C          0.54646000       0.96414000       0.05453000
   280  C          0.45354000       0.03586000       0.94547000
   281  H          0.57790000       0.93910000       0.09330000
   282  H          0.42210000       0.06090000       0.90670000
   283  C          0.44925000       0.92883000       0.04193000
   284  C          0.55075000       0.07117000       0.95807000
   285  H          0.41440000       0.87840000       0.07110000
   286  H          0.58560000       0.12160000       0.92890000
   287  C          0.59665000       0.03394000       0.01214000
   288  C          0.40335000       0.96606000       0.98786000
   289  H          0.66490000       0.05730000       0.02010000
   290  H          0.33510000       0.94270000       0.97990000
