data_MAXJAA
_symmetry_space_group_name_H-M    'P1'
_symmetry_Int_Tables_number       1
loop_
_symmetry_equiv_pos_site_id
_symmetry_equiv_pos_as_xyz
1 x,y,z
_cell_length_a                   7.58813
_cell_length_b                   9.32134
_cell_length_c                   19.33536
_cell_angle_alpha                96.1653
_cell_angle_beta                 97.9243
_cell_angle_gamma                108.1443
loop_
_atom_site_label
_atom_site_type_symbol
_atom_site_fract_x
_atom_site_fract_y
_atom_site_fract_z
     1  S          0.42532500       0.26825400       0.54767200
     2  S          0.57467500       0.73174600       0.45232800
     3  S          0.15474500       0.22825500       0.64757200
     4  S          0.84525500       0.77174500       0.35242800
     5  O          0.65871150      -0.00106120       0.62706500
     6  O          0.34128850       0.00106120       0.37293500
     7  O          0.60719160       0.22793120       0.77824500
     8  O          0.39280840       0.77206880       0.22175500
     9  O          0.45179190       0.02556130       0.82371500
    10  O          0.54820810       0.97443870       0.17628500
    11  N          0.42140150       0.09533120       0.64293500
    12  N          0.57859850       0.90466880       0.35706500
    13  C          0.06502190       0.47202150       0.37001700
    14  C          0.93497810       0.52797850       0.62998300
    15  H          0.00715600       0.53153400       0.39583400
    16  H         -0.00715600       0.46846600       0.60416600
    17  C          0.16422000       0.53190160       0.31893700
    18  C          0.83578000       0.46809840       0.68106300
    19  H          0.17277100       0.63173300       0.30977300
    20  H          0.82722900       0.36826700       0.69022700
    21  C          0.25132000       0.44779180       0.28096800
    22  C          0.74868000       0.55220820       0.71903200
    23  H          0.31852500       0.48911100       0.24571600
    24  H          0.68147500       0.51088900       0.75428400
    25  C          0.23912000       0.30228180       0.29513900
    26  C          0.76088000       0.69771820       0.70486100
    27  H          0.29921500       0.24413600       0.26970900
    28  H          0.70078500       0.75586400       0.73029100
    29  C          0.13992000       0.24162170       0.34596800
    30  C          0.86008000       0.75837830       0.65403200
    31  H          0.13314500       0.14219900       0.35524800
    32  H          0.86685500       0.85780100       0.64475200
    33  C          0.04906180       0.32477150       0.38402700
    34  C          0.95093820       0.67522850       0.61597300
    35  C          0.94885190       0.25217150       0.43746700
    36  C          0.05114810       0.74782850       0.56253300
    37  H          0.00047800       0.18365300       0.45897800
    38  H         -0.00047800       0.81634700       0.54102200
    39  C          0.79418180       0.26712150       0.46112700
    40  C          0.20581820       0.73287850       0.53887300
    41  C          0.68282000       0.36338170       0.43335700
    42  C          0.31718000       0.63661830       0.56664300
    43  H          0.54798000       0.30396100       0.42424600
    44  H          0.45202000       0.69603900       0.57575400
    45  H          0.72054000       0.39435300       0.38927500
    46  H          0.27946000       0.60564700       0.61072500
    47  H          0.70713000       0.45458400       0.46841500
    48  H          0.29287000       0.54541600       0.53158500
    49  C          0.73416180       0.18035140       0.51637700
    50  C          0.26583820       0.81964860       0.48362300
    51  H          0.80584400       0.11678300       0.52908600
    52  H          0.19415600       0.88321700       0.47091400
    53  C          0.59357180       0.17455140       0.55284700
    54  C          0.40642820       0.82544860       0.44715300
    55  C          0.56821190       0.08007150       0.60974700
    56  C          0.43178810       0.91992850       0.39025300
    57  C          0.33118190       0.19045150       0.61835700
    58  C          0.66881810       0.80954850       0.38164300
    59  C          0.37402000       0.01367150       0.70150700
    60  C          0.62598000      -0.01367150       0.29849300
    61  H          0.39343400       0.91355800       0.69271700
    62  H          0.60656600       0.08644200       0.30728300
    63  H          0.23860100      -0.00634000       0.70285900
    64  H          0.76139900       0.00634000       0.29714100
    65  C          0.48952000       0.09922160       0.77360700
    66  C          0.51048000       0.90077840       0.22639300
    67  O          0.23652150       0.03125130       0.01996600
    68  O          0.76347850       0.96874870       0.98003400
    69  C          0.20813000       0.24791190       0.08684100
    70  C          0.79187000       0.75208810       0.91315900
    71  H          0.28336300       0.30265300       0.05457700
    72  H          0.71663700       0.69734700       0.94542300
    73  H          0.27422700       0.28720300       0.13574700
    74  H          0.72577300       0.71279700       0.86425300
    75  H          0.08526000       0.26328400       0.08090600
    76  H          0.91474000       0.73671600       0.91909400
    77  C          0.18002000       0.08082180       0.07047800
    78  C          0.81998000       0.91917820       0.92952200
    79  C          0.08213000       0.97848000       0.11753900
    80  C          0.91787000       0.02152000       0.88246100
    81  H          0.04003200       0.87205500       0.09391500
    82  H          0.95996800       0.12794500       0.90608500
    83  H         -0.02737100       0.00588100       0.12779500
    84  H          0.02737100      -0.00588100       0.87220500
    85  H          0.16909900      -0.00965900       0.16182800
    86  H          0.83090100       0.00965900       0.83817200
    87  N          0.80846190       0.37510140       0.91966600
    88  N          0.19153810       0.62489860       0.08033400
    89  N          0.54173170       0.22427140       0.95103700
    90  N          0.45826830       0.77572860       0.04896300
    91  N          0.78448160       0.40599120       0.03681600
    92  N          0.21551840       0.59400880       0.96318400
    93  N          0.70444170       0.18946130       0.09364700
    94  N          0.29555830       0.81053870       0.90635300
    95  N          0.73035170       0.42623130       0.15145600
    96  N          0.26964830       0.57376870       0.84854400
    97  C          0.71133190       0.33171150       0.97031700
    98  C          0.28866810       0.66828850       0.02968300
    99  C          0.73496180       0.33824150       0.09257700
   100  C          0.26503820       0.66175850       0.90742300
   101  C          0.74563000       0.58668180       0.15287900
   102  C          0.25437000       0.41331820       0.84712100
   103  H          0.86586500       0.65183800       0.18209500
   104  H          0.13413500       0.34816200       0.81790500
   105  H          0.64138700       0.60544900       0.17284600
   106  H          0.35861300       0.39455100       0.82715400
   107  H          0.73960700       0.61039200       0.10461100
   108  H          0.26039300       0.38960800       0.89538900
   109  C          0.70752000       0.36350180       0.21697700
   110  C          0.29248000       0.63649820       0.78302300
   111  H          0.58176700       0.28692800       0.21096400
   112  H          0.41823300       0.71307200       0.78903600
   113  H          0.72180300       0.44600000       0.25548600
   114  H          0.27819700       0.55400000       0.74451400
   115  H          0.80350400       0.31546900       0.22842200
   116  H          0.19649600       0.68453100       0.77157800
   117  H          0.71420000       0.13520000       0.05461000
   118  H          0.28580000       0.86480000       0.94539000
   119  H          0.75820000       0.33420000       0.87671000
   120  H          0.24180000       0.66580000       0.12329000
   121  H          0.47620000       0.19420000       0.98361000
   122  H          0.52380000       0.80580000       0.01639000
   123  H          0.91730000       0.43520000       0.93159000
   124  H          0.08270000       0.56480000       0.06841000
   125  H          0.66130000       0.14220000       0.12901000
   126  H          0.33870000       0.85780000       0.87099000
   127  H          0.51230000       0.16720000       0.91121100
   128  H          0.48770000       0.83280000       0.08878900
