data_MAXPIL
_symmetry_space_group_name_H-M    'P1'
_symmetry_Int_Tables_number       1
loop_
_symmetry_equiv_pos_site_id
_symmetry_equiv_pos_as_xyz
1 x,y,z
_cell_length_a                   8.4743
_cell_length_b                   10.4961
_cell_length_c                   14.5524
_cell_angle_alpha                76.892
_cell_angle_beta                 86.593
_cell_angle_gamma                82.582
loop_
_atom_site_label
_atom_site_type_symbol
_atom_site_fract_x
_atom_site_fract_y
_atom_site_fract_z
     1  O          0.83472000       0.69882000       0.61131000
     2  O          0.16528000       0.30118000       0.38869000
     3  O          0.19652000       0.65812000       0.41701000
     4  O          0.80348000       0.34188000       0.58299000
     5  O          0.12742000       0.68542000       0.55481000
     6  O          0.87258000       0.31458000       0.44519000
     7  O          0.70182000       0.61612000       0.26271000
     8  O          0.29818000       0.38388000       0.73729000
     9  N          0.75752000       0.71722000       0.76371000
    10  N          0.24248000       0.28278000       0.23629000
    11  N          0.09472000       0.66862000       0.47871000
    12  N          0.90528000       0.33138000       0.52129000
    13  C          0.70763000       0.76222000       0.66702000
    14  C          0.29237000       0.23778000       0.33298000
    15  C          0.72693000       0.91352000       0.64422000
    16  C          0.27307000       0.08648000       0.35578000
    17  C          0.85613000       0.91592000       0.71082000
    18  C          0.14387000       0.08408000       0.28918000
    19  C          0.86713000       0.80002000       0.78112000
    20  C          0.13287000       0.19998000       0.21888000
    21  C          0.97433000       0.77883000       0.85322000
    22  C          0.02567000       0.22117000       0.14678000
    23  C          0.06864000       0.87743000       0.85432000
    24  C          0.93136000       0.12257000       0.14568000
    25  C          0.05814000      -0.00707000       0.78512000
    26  C          0.94186000       0.00707000       0.21488000
    27  C          0.95174000       0.01163000       0.71292000
    28  C          0.04826000       0.98837000       0.28708000
    29  C          0.57454000      -0.00337000       0.67182000
    30  C          0.42546000       0.00337000       0.32818000
    31  C          0.77034000       0.96853000       0.54052000
    32  C          0.22966000       0.03147000       0.45948000
    33  C          0.74063000       0.58972000       0.81952000
    34  C          0.25937000       0.41028000       0.18048000
    35  C          0.72124000       0.57143000       0.91692000
    36  C          0.27876000       0.42857000       0.08308000
    37  C          0.70025000       0.44813000       0.97162000
    38  C          0.29975000       0.55187000       0.02838000
    39  C          0.69325000       0.34333000       0.93122000
    40  C          0.30675000       0.65667000       0.06878000
    41  C          0.71144000       0.36003000       0.83532000
    42  C          0.28856000       0.63997000       0.16468000
    43  C          0.73593000       0.48253000       0.77842000
    44  C          0.26407000       0.51747000       0.22158000
    45  C          0.54523000       0.72533000       0.65032000
    46  C          0.45477000       0.27467000       0.34968000
    47  C          0.52263000       0.69083000       0.56982000
    48  C          0.47737000       0.30917000       0.43018000
    49  C          0.64823000       0.67662000       0.49932000
    50  C          0.35177000       0.32338000       0.50068000
    51  C          0.80513000       0.68212000       0.52422000
    52  C          0.19487000       0.31788000       0.47578000
    53  C          0.92863000       0.66292000       0.45902000
    54  C          0.07137000       0.33708000       0.54098000
    55  C          0.90003000       0.64112000       0.37022000
    56  C          0.09997000       0.35888000       0.62978000
    57  C          0.74523000       0.63703000       0.34702000
    58  C          0.25477000       0.36297000       0.65298000
    59  C          0.62083000       0.65392000       0.41202000
    60  C          0.37917000       0.34608000       0.58798000
    61  C          0.82415000       0.58364000       0.19912000
    62  C          0.17585000       0.41636000       0.80088000
    63  C          0.41334000       0.72833000       0.72452000
    64  C          0.58666000       0.27167000       0.27548000
    65  H          0.98400000       0.69800000       0.90100000
    66  H          0.01600000       0.30200000       0.09900000
    67  H          0.14300000       0.86700000       0.90300000
    68  H          0.85700000       0.13300000       0.09700000
    69  H          0.12700000       0.05700000       0.78700000
    70  H          0.87300000       0.94300000       0.21300000
    71  H          0.93900000       0.09500000       0.66500000
    72  H          0.06100000       0.90500000       0.33500000
    73  H          0.41700000       0.67400000       0.55800000
    74  H          0.58300000       0.32600000       0.44200000
    75  H          0.51300000       0.64900000       0.39500000
    76  H          0.48700000       0.35100000       0.60500000
    77  H         -0.01100000       0.62900000       0.32500000
    78  H          0.01100000       0.37100000       0.67500000
    79  H          0.72000000       0.64600000       0.94600000
    80  H          0.28000000       0.35400000       0.05400000
    81  H          0.68600000       0.43800000       0.04000000
    82  H          0.31400000       0.56200000       0.96000000
    83  H          0.68500000       0.25700000       0.97000000
    84  H          0.31500000       0.74300000       0.03000000
    85  H          0.70000000       0.28800000       0.80500000
    86  H          0.30000000       0.71200000       0.19500000
    87  H          0.74700000       0.49400000       0.71000000
    88  H          0.25300000       0.50600000       0.29000000
    89  H          0.58700000       0.08700000       0.65800000
    90  H          0.41300000       0.91300000       0.34200000
    91  H          0.48400000       0.98400000       0.64000000
    92  H          0.51600000       0.01600000       0.36000000
    93  H          0.55100000       0.96900000       0.73900000
    94  H          0.44900000       0.03100000       0.26100000
    95  H          0.68700000       0.96500000       0.50000000
    96  H          0.31300000       0.03500000       0.50000000
    97  H          0.79200000       0.05800000       0.53100000
    98  H          0.20800000       0.94200000       0.46900000
    99  H          0.86500000       0.92800000       0.52100000
   100  H          0.13500000       0.07200000       0.47900000
   101  H          0.32000000       0.70300000       0.70700000
   102  H          0.68000000       0.29700000       0.29300000
   103  H          0.44700000       0.66900000       0.78400000
   104  H          0.55300000       0.33100000       0.21600000
   105  H          0.39100000       0.81500000       0.73700000
   106  H          0.60900000       0.18500000       0.26300000
   107  H          0.78300000       0.57200000       0.14200000
   108  H          0.21700000       0.42800000       0.85800000
   109  H          0.89200000       0.65400000       0.18100000
   110  H          0.10800000       0.34600000       0.81900000
   111  H          0.89100000       0.50500000       0.22600000
   112  H          0.10900000       0.49500000       0.77400000
   113  C          0.34964000       0.06503000       0.98382000
   114  C          0.65036000       0.93497000       0.01618000
   115  C          0.46295000       0.07133000       0.91192000
   116  C          0.53705000       0.92867000       0.08808000
   117  C          0.38745000      -0.00613000       0.07152000
   118  C          0.61255000       0.00613000       0.92848000
   119  H          0.43200000       0.12300000       0.84800000
   120  H          0.56800000       0.87700000       0.15200000
   121  H          0.24300000       0.11300000       0.97200000
   122  H          0.75700000       0.88700000       0.02800000
   123  H          0.30700000       0.98800000       0.12300000
   124  H          0.69300000       0.01200000       0.87700000
