data_MAYGAV
_symmetry_space_group_name_H-M    'P1'
_symmetry_Int_Tables_number       1
loop_
_symmetry_equiv_pos_site_id
_symmetry_equiv_pos_as_xyz
1 x,y,z
_cell_length_a                   10.2492
_cell_length_b                   10.2492
_cell_length_c                   18.4814
_cell_angle_alpha                90.0
_cell_angle_beta                 90.0
_cell_angle_gamma                120.0
loop_
_atom_site_label
_atom_site_type_symbol
_atom_site_fract_x
_atom_site_fract_y
_atom_site_fract_z
     1  P          0.66670000       0.33330000       0.00010600
     2  P          0.66670000       0.33330000       0.50010600
     3  P          0.33336667       0.66663333       0.33343933
     4  P          0.33336667       0.66663333       0.83343933
     5  P          0.00003333      -0.00003333       0.66677267
     6  P          0.00003333      -0.00003333       0.16677267
     7  O          0.52272000       0.32462000       0.03194100
     8  O          0.67538000       0.19810000       0.03194100
     9  O          0.80190000       0.47728000       0.03194100
    10  O          0.67538000       0.47728000       0.53194100
    11  O          0.80190000       0.32462000       0.53194100
    12  O          0.52272000       0.19810000       0.53194100
    13  O          0.18938667       0.65795333       0.36527433
    14  O          0.34204667       0.53143333       0.36527433
    15  O          0.46856667       0.81061333       0.36527433
    16  O          0.34204667       0.81061333       0.86527433
    17  O          0.46856667       0.65795333       0.86527433
    18  O          0.18938667       0.53143333       0.86527433
    19  O          0.85605333      -0.00871333       0.69860767
    20  O          0.00871333       0.86476667       0.69860767
    21  O          0.13523333       0.14394667       0.69860767
    22  O          0.00871333       0.14394667       0.19860767
    23  O          0.13523333      -0.00871333       0.19860767
    24  O          0.85605333       0.86476667       0.19860767
    25  O          0.66670000       0.33330000       0.91895860
    26  O          0.66670000       0.33330000       0.41895860
    27  O          0.33336667       0.66663333       0.25229193
    28  O          0.33336667       0.66663333       0.75229193
    29  O          0.00003333      -0.00003333       0.58562527
    30  O          0.00003333      -0.00003333       0.08562527
    31  H          0.51550000       0.41660000       0.03120000
    32  H          0.58340000       0.09890000       0.03120000
    33  H          0.90110000       0.48450000       0.03120000
    34  H          0.58340000       0.48450000       0.53120000
    35  H          0.90110000       0.41660000       0.53120000
    36  H          0.51550000       0.09890000       0.53120000
    37  H          0.18216667       0.74993333       0.36453333
    38  H          0.25006667       0.43223333       0.36453333
    39  H          0.56776667       0.81783333       0.36453333
    40  H          0.25006667       0.81783333       0.86453333
    41  H          0.56776667       0.74993333       0.86453333
    42  H          0.18216667       0.43223333       0.86453333
    43  H          0.84883333       0.08326667       0.69786667
    44  H          0.91673333       0.76556667       0.69786667
    45  H          0.23443333       0.15116667       0.69786667
    46  H          0.91673333       0.15116667       0.19786667
    47  H          0.23443333       0.08326667       0.19786667
    48  H          0.84883333       0.76556667       0.19786667
    49  H          0.90020000       0.48480000       0.03120000
    50  H          0.51520000       0.41540000       0.03120000
    51  H          0.90020000       0.41540000       0.53120000
    52  H          0.58460000       0.48480000       0.53120000
    53  H          0.56686667       0.81813333       0.36453333
    54  H          0.18186667       0.74873333       0.36453333
    55  H          0.56686667       0.74873333       0.86453333
    56  H          0.25126667       0.81813333       0.86453333
    57  H          0.23353333       0.15146667       0.69786667
    58  H          0.84853333       0.08206667       0.69786667
    59  H          0.23353333       0.08206667       0.19786667
    60  H          0.91793333       0.15146667       0.19786667
    61  N          0.33330000       0.66670000       0.02947140
    62  N          0.33330000       0.66670000       0.52947140
    63  N         -0.00003333       0.00003333       0.36280473
    64  N         -0.00003333       0.00003333       0.86280473
    65  N          0.66663333       0.33336667       0.69613807
    66  N          0.66663333       0.33336667       0.19613807
    67  N          0.49342000       0.56542000       0.02876110
    68  N          0.43458000       0.92800000       0.02876110
    69  N          0.07200000       0.50658000       0.02876110
    70  N          0.43458000       0.50658000       0.52876110
    71  N          0.07200000       0.56542000       0.52876110
    72  N          0.49342000       0.92800000       0.52876110
    73  N          0.16008667       0.89875333       0.36209443
    74  N          0.10124667       0.26133333       0.36209443
    75  N          0.73866667       0.83991333       0.36209443
    76  N          0.10124667       0.83991333       0.86209443
    77  N          0.73866667       0.89875333       0.86209443
    78  N          0.16008667       0.26133333       0.86209443
    79  N          0.82675333       0.23208667       0.69542777
    80  N          0.76791333       0.59466667       0.69542777
    81  N          0.40533333       0.17324667       0.69542777
    82  N          0.76791333       0.17324667       0.19542777
    83  N          0.40533333       0.23208667       0.19542777
    84  N          0.82675333       0.59466667       0.19542777
    85  N          0.23732000       0.40372000       0.02944100
    86  N          0.59628000       0.83360000       0.02944100
    87  N          0.16640000       0.76268000       0.02944100
    88  N          0.59628000       0.76268000       0.52944100
    89  N          0.16640000       0.40372000       0.52944100
    90  N          0.23732000       0.83360000       0.52944100
    91  N          0.90398667       0.73705333       0.36277433
    92  N          0.26294667       0.16693333       0.36277433
    93  N          0.83306667       0.09601333       0.36277433
    94  N          0.26294667       0.09601333       0.86277433
    95  N          0.83306667       0.73705333       0.86277433
    96  N          0.90398667       0.16693333       0.86277433
    97  N          0.57065333       0.07038667       0.69610767
    98  N          0.92961333       0.50026667       0.69610767
    99  N          0.49973333       0.42934667       0.69610767
   100  N          0.92961333       0.42934667       0.19610767
   101  N          0.49973333       0.07038667       0.19610767
   102  N          0.57065333       0.50026667       0.19610767
   103  N          0.74782000       0.73012000       0.03417120
   104  N          0.26988000       0.01770000       0.03417120
   105  N         -0.01770000       0.25218000       0.03417120
   106  N          0.26988000       0.25218000       0.53417120
   107  N         -0.01770000       0.73012000       0.53417120
   108  N          0.74782000       0.01770000       0.53417120
   109  N          0.41448667       0.06345333       0.36750453
   110  N          0.93654667       0.35103333       0.36750453
   111  N          0.64896667       0.58551333       0.36750453
   112  N          0.93654667       0.58551333       0.86750453
   113  N          0.64896667       0.06345333       0.86750453
   114  N          0.41448667       0.35103333       0.86750453
   115  N          0.08115333       0.39678667       0.70083787
   116  N          0.60321333       0.68436667       0.70083787
   117  N          0.31563333       0.91884667       0.70083787
   118  N          0.60321333       0.91884667       0.20083787
   119  N          0.31563333       0.39678667       0.20083787
   120  N          0.08115333       0.68436667       0.20083787
   121  C          0.35273000       0.54123000       0.02864120
   122  C          0.45877000       0.81150000       0.02864120
   123  C          0.18850000       0.64727000       0.02864120
   124  C          0.45877000       0.64727000       0.52864120
   125  C          0.18850000       0.54123000       0.52864120
   126  C          0.35273000       0.81150000       0.52864120
   127  C          0.01939667       0.87456333       0.36197453
   128  C          0.12543667       0.14483333       0.36197453
   129  C          0.85516667       0.98060333       0.36197453
   130  C          0.12543667       0.98060333       0.86197453
   131  C          0.85516667       0.87456333       0.86197453
   132  C          0.01939667       0.14483333       0.86197453
   133  C          0.68606333       0.20789667       0.69530787
   134  C          0.79210333       0.47816667       0.69530787
   135  C          0.52183333       0.31393667       0.69530787
   136  C          0.79210333       0.31393667       0.19530787
   137  C          0.52183333       0.20789667       0.19530787
   138  C          0.68606333       0.47816667       0.19530787
   139  C          0.61103000       0.70933000       0.03063110
   140  C          0.29067000       0.90170000       0.03063110
   141  C          0.09830000       0.38897000       0.03063110
   142  C          0.29067000       0.38897000       0.53063110
   143  C          0.09830000       0.70933000       0.53063110
   144  C          0.61103000       0.90170000       0.53063110
   145  C          0.27769667       0.04266333       0.36396443
   146  C          0.95733667       0.23503333       0.36396443
   147  C          0.76496667       0.72230333       0.36396443
   148  C          0.95733667       0.72230333       0.86396443
   149  C          0.76496667       0.04266333       0.86396443
   150  C          0.27769667       0.23503333       0.86396443
   151  C          0.94436333       0.37599667       0.69729777
   152  C          0.62400333       0.56836667       0.69729777
   153  C          0.43163333       0.05563667       0.69729777
   154  C          0.62400333       0.05563667       0.19729777
   155  C          0.43163333       0.37599667       0.19729777
   156  C          0.94436333       0.56836667       0.19729777
   157  H          0.75430000       0.63930000       0.03151200
   158  H          0.36070000       0.11500000       0.03151200
   159  H          0.88500000       0.24570000       0.03151200
   160  H          0.36070000       0.24570000       0.53151200
   161  H          0.88500000       0.63930000       0.53151200
   162  H          0.75430000       0.11500000       0.53151200
   163  H          0.42096667       0.97263333       0.36484533
   164  H          0.02736667       0.44833333       0.36484533
   165  H          0.55166667       0.57903333       0.36484533
   166  H          0.02736667       0.57903333       0.86484533
   167  H          0.55166667       0.97263333       0.86484533
   168  H          0.42096667       0.44833333       0.86484533
   169  H          0.08763333       0.30596667       0.69817867
   170  H          0.69403333       0.78166667       0.69817867
   171  H          0.21833333       0.91236667       0.69817867
   172  H          0.69403333       0.91236667       0.19817867
   173  H          0.21833333       0.30596667       0.19817867
   174  H          0.08763333       0.78166667       0.19817867
   175  H          0.82540000       0.82340000       0.04161800
   176  H          0.17660000       0.00200000       0.04161800
   177  H         -0.00200000       0.17460000       0.04161800
   178  H          0.17660000       0.17460000       0.54161800
   179  H         -0.00200000       0.82340000       0.54161800
   180  H          0.82540000       0.00200000       0.54161800
   181  H          0.49206667       0.15673333       0.37495133
   182  H          0.84326667       0.33533333       0.37495133
   183  H          0.66466667       0.50793333       0.37495133
   184  H          0.84326667       0.50793333       0.87495133
   185  H          0.66466667       0.15673333       0.87495133
   186  H          0.49206667       0.33533333       0.87495133
   187  H          0.15873333       0.49006667       0.70828467
   188  H          0.50993333       0.66866667       0.70828467
   189  H          0.33133333       0.84126667       0.70828467
   190  H          0.50993333       0.84126667       0.20828467
   191  H          0.33133333       0.49006667       0.20828467
   192  H          0.15873333       0.66866667       0.20828467
   193  H         -0.00260000       0.17540000       0.04161800
   194  H          0.82460000       0.82200000       0.04161800
   195  H          0.17800000       0.00260000       0.04161800
   196  H          0.82460000       0.00260000       0.54161800
   197  H          0.17800000       0.17540000       0.54161800
   198  H         -0.00260000       0.82200000       0.54161800
   199  H          0.66406667       0.50873333       0.37495133
   200  H          0.49126667       0.15533333       0.37495133
   201  H          0.84466667       0.33593333       0.37495133
   202  H          0.49126667       0.33593333       0.87495133
   203  H          0.84466667       0.50873333       0.87495133
   204  H          0.66406667       0.15533333       0.87495133
   205  H          0.33073333       0.84206667       0.70828467
   206  H          0.15793333       0.48866667       0.70828467
   207  H          0.51133333       0.66926667       0.70828467
   208  H          0.15793333       0.66926667       0.20828467
   209  H          0.51133333       0.84206667       0.20828467
   210  H          0.33073333       0.48866667       0.20828467
