data_MBPIQL
_symmetry_space_group_name_H-M    'P1'
_symmetry_Int_Tables_number       1
loop_
_symmetry_equiv_pos_site_id
_symmetry_equiv_pos_as_xyz
1 x,y,z
_cell_length_a                   6.8171
_cell_length_b                   7.8971
_cell_length_c                   19.3512
_cell_angle_alpha                90.0
_cell_angle_beta                 102.71
_cell_angle_gamma                90.0
loop_
_atom_site_label
_atom_site_type_symbol
_atom_site_fract_x
_atom_site_fract_y
_atom_site_fract_z
     1  C          0.80360000       0.27510000       0.20630000
     2  C          0.19640000       0.77510000       0.29370000
     3  C          0.19640000       0.72490000       0.79370000
     4  C          0.80360000       0.22490000       0.70630000
     5  C          0.73990000       0.20210000       0.08130000
     6  C          0.26010000       0.70210000       0.41870000
     7  C          0.26010000       0.79790000       0.91870000
     8  C          0.73990000       0.29790000       0.58130000
     9  C          0.78910000       0.12590000       0.02360000
    10  C          0.21090000       0.62590000       0.47640000
    11  C          0.21090000       0.87410000       0.97640000
    12  C          0.78910000       0.37410000       0.52360000
    13  C          0.97070000       0.04090000       0.03050000
    14  C          0.02930000       0.54090000       0.46950000
    15  C          0.02930000       0.95910000       0.96950000
    16  C          0.97070000       0.45910000       0.53050000
    17  C          0.09790000       0.03710000       0.09800000
    18  C          0.90210000       0.53710000       0.40200000
    19  C          0.90210000       0.96290000       0.90200000
    20  C          0.09790000       0.46290000       0.59800000
    21  C          0.04160000       0.11640000       0.15370000
    22  C          0.95840000       0.61640000       0.34630000
    23  C          0.95840000       0.88360000       0.84630000
    24  C          0.04160000       0.38360000       0.65370000
    25  H          0.69000000       0.18600000       0.21800000
    26  H          0.31000000       0.68600000       0.28200000
    27  H          0.31000000       0.81400000       0.78200000
    28  H          0.69000000       0.31400000       0.71800000
    29  H          0.90800000       0.29500000       0.24100000
    30  H          0.09200000       0.79500000       0.25900000
    31  H          0.09200000       0.70500000       0.75900000
    32  H          0.90800000       0.20500000       0.74100000
    33  H          0.75100000       0.38500000       0.18900000
    34  H          0.24900000       0.88500000       0.31100000
    35  H          0.24900000       0.61500000       0.81100000
    36  H          0.75100000       0.11500000       0.68900000
    37  H          0.61500000       0.26400000       0.07800000
    38  H          0.38500000       0.76400000       0.42200000
    39  H          0.38500000       0.73600000       0.92200000
    40  H          0.61500000       0.23600000       0.57800000
    41  H          0.70600000       0.13500000       0.98300000
    42  H          0.29400000       0.63500000       0.51700000
    43  H          0.29400000       0.86500000       0.01700000
    44  H          0.70600000       0.36500000       0.48300000
    45  H          0.10500000       0.12300000       0.19800000
    46  H          0.89500000       0.62300000       0.30200000
    47  H          0.89500000       0.87700000       0.80200000
    48  H          0.10500000       0.37700000       0.69800000
    49  H          0.22700000      -0.01600000       0.10900000
    50  H          0.77300000       0.48400000       0.39100000
    51  H          0.77300000       0.01600000       0.89100000
    52  H          0.22700000       0.51600000       0.60900000
    53  N          0.86500000       0.19720000       0.14510000
    54  N          0.13500000       0.69720000       0.35490000
    55  N          0.13500000       0.80280000       0.85490000
    56  N          0.86500000       0.30280000       0.64510000
    57  C          0.16790000       0.09310000       0.49380000
    58  C          0.83210000       0.59310000       0.00620000
    59  C          0.83210000       0.90690000       0.50620000
    60  C          0.16790000       0.40690000      -0.00620000
    61  C          0.00820000       0.07320000       0.43540000
    62  C         -0.00820000       0.57320000       0.06460000
    63  C         -0.00820000       0.92680000       0.56460000
    64  C          0.00820000       0.42680000       0.93540000
    65  C          0.15890000       0.01980000       0.55770000
    66  C          0.84110000       0.51980000       0.94230000
    67  C          0.84110000       0.98020000       0.44230000
    68  C          0.15890000       0.48020000       0.05770000
    69  H          0.27400000       0.03500000       0.59800000
    70  H          0.72600000       0.53500000       0.90200000
    71  H          0.72600000       0.96500000       0.40200000
    72  H          0.27400000       0.46500000       0.09800000
    73  H          0.32900000       0.21100000       0.45000000
    74  H          0.67100000       0.71100000       0.05000000
    75  H          0.67100000       0.78900000       0.55000000
    76  H          0.32900000       0.28900000       0.95000000
    77  H          0.01600000       0.13000000       0.39200000
    78  H         -0.01600000       0.63000000       0.10800000
    79  H         -0.01600000       0.87000000       0.60800000
    80  H          0.01600000       0.37000000       0.89200000
    81  O          0.33290000       0.18850000       0.49110000
    82  O          0.66710000       0.68850000       0.00890000
    83  O          0.66710000       0.81150000       0.50890000
    84  O          0.33290000       0.31150000       0.99110000
    85  I          0.39290000       0.29597000       0.32380000
    86  I          0.60710000       0.79597000       0.17620000
    87  I          0.60710000       0.70403000       0.67620000
    88  I          0.39290000       0.20403000       0.82380000
