data_MEBRER
_symmetry_space_group_name_H-M    'P1'
_symmetry_Int_Tables_number       1
loop_
_symmetry_equiv_pos_site_id
_symmetry_equiv_pos_as_xyz
1 x,y,z
_cell_length_a                   6.785311
_cell_length_b                   10.040417
_cell_length_c                   10.399117
_cell_angle_alpha                77.8102
_cell_angle_beta                 74.3702
_cell_angle_gamma                78.3912
loop_
_atom_site_label
_atom_site_type_symbol
_atom_site_fract_x
_atom_site_fract_y
_atom_site_fract_z
     1  O          0.28009140       0.70680900       0.90128900
     2  O          0.71990860       0.29319100       0.09871100
     3  N          0.28593000       0.51974140       0.39471140
     4  N          0.71407000       0.48025860       0.60528860
     5  N          0.58642000       0.74041150       0.90840120
     6  N          0.41358000       0.25958850       0.09159880
     7  N          0.56242000       0.78698140       0.77681120
     8  N          0.43758000       0.21301860       0.22318880
     9  N          0.11324190       0.84768120       0.43928120
    10  N          0.88675810       0.15231880       0.56071880
    11  C          0.17733000       0.60015160       0.18688150
    12  C          0.82267000       0.39984840       0.81311850
    13  H          0.07200000       0.61440000       0.14150000
    14  H          0.92800000       0.38560000       0.85850000
    15  C          0.14433000       0.54371170       0.32266170
    16  C          0.85567000       0.45628830       0.67733830
    17  H          0.01380000       0.52090000       0.36670000
    18  H          0.98620000       0.47910000       0.63330000
    19  C          0.46903000       0.55478180       0.32838180
    20  C          0.53097000       0.44521820       0.67161820
    21  H          0.57110000       0.53960000       0.37650000
    22  H          0.42890000       0.46040000       0.62350000
    23  C          0.51913000       0.61183170       0.19385160
    24  C          0.48087000       0.38816830       0.80614840
    25  H          0.65060000       0.63460000       0.15310000
    26  H          0.34940000       0.36540000       0.84690000
    27  C          0.36982000       0.63486140       0.12005140
    28  C          0.63018000       0.36513860       0.87994860
    29  C          0.41882000       0.69497150       0.97726140
    30  C          0.58118000       0.30502850       0.02273860
    31  C          0.38222000       0.76517150       0.77678130
    32  C          0.61778000       0.23482850       0.22321870
    33  C          0.28612000       0.79217140       0.66265140
    34  C          0.71388000       0.20782860       0.33734860
    35  C          0.39702000       0.84201160       0.53483150
    36  C          0.60298000       0.15798840       0.46516850
    37  H          0.53250000       0.85680000       0.52170000
    38  H          0.46750000       0.14320000       0.47830000
    39  C          0.30512000       0.86926160       0.42799150
    40  C          0.69488000       0.13073840       0.57200850
    41  H          0.38060000       0.90470000       0.34310000
    42  H          0.61940000       0.09530000       0.65690000
    43  C          0.00972000       0.79799160       0.56238150
    44  C         -0.00972000       0.20200840       0.43761850
    45  H          0.87620000       0.78120000       0.57210000
    46  H          0.12380000       0.21880000       0.42790000
    47  C          0.08722000       0.76983150       0.67634140
    48  C          0.91278000       0.23016850       0.32365860
    49  H          0.00730000       0.73660000       0.76050000
    50  H         -0.00730000       0.26340000       0.23950000
    51  O          0.84983160       0.88550120       0.26613100
    52  O          0.15016840       0.11449880       0.73386900
    53  H          0.93520000       0.87890000       0.31080000
    54  H          0.06480000       0.12110000       0.68920000
    55  C          0.81312000       0.95228150       0.04140150
    56  C          0.18688000       0.04771850       0.95859850
    57  H          0.68640000       0.92010000       0.06860000
    58  H          0.31360000       0.07990000       0.93140000
    59  C          0.92832000       0.94274150       0.13486140
    60  C          0.07168000       0.05725850       0.86513860
    61  C          0.11552000      -0.00911850       0.09204150
    62  C          0.88448000       0.00911850       0.90795850
    63  H          0.19480000       0.98500000       0.15390000
    64  H          0.80520000       0.01500000       0.84610000
