data_MELGOC
_symmetry_space_group_name_H-M    'P1'
_symmetry_Int_Tables_number       1
loop_
_symmetry_equiv_pos_site_id
_symmetry_equiv_pos_as_xyz
1 x,y,z
_cell_length_a                   7.40177
_cell_length_b                   20.444819
_cell_length_c                   14.412412
_cell_angle_alpha                90.0
_cell_angle_beta                 103.8155
_cell_angle_gamma                90.0
loop_
_atom_site_label
_atom_site_type_symbol
_atom_site_fract_x
_atom_site_fract_y
_atom_site_fract_z
     1  Br         0.47873600       0.35834200       0.48431200
     2  Br         0.52126400       0.85834200       0.01568800
     3  Br         0.52126400       0.64165800       0.51568800
     4  Br         0.47873600       0.14165800       0.98431200
     5  O          0.10483000       0.38945140       0.98553830
     6  O          0.89517000       0.88945140       0.51446170
     7  O          0.89517000       0.61054860       0.01446170
     8  O          0.10483000       0.11054860       0.48553830
     9  O          0.41464000       0.38235140       0.98516830
    10  O          0.58536000       0.88235140       0.51483170
    11  O          0.58536000       0.61764860       0.01483170
    12  O          0.41464000       0.11764860       0.48516830
    13  C          0.21134000       0.20248160       0.27833000
    14  C          0.78866000       0.70248160       0.22167000
    15  C          0.78866000       0.79751840       0.72167000
    16  C          0.21134000       0.29751840       0.77833000
    17  H          0.18140000       0.16420000       0.30610000
    18  H          0.81860000       0.66420000       0.19390000
    19  H          0.81860000       0.83580000       0.69390000
    20  H          0.18140000       0.33580000       0.80610000
    21  C          0.29124000       0.25249150       0.33442000
    22  C          0.70876000       0.75249150       0.16558000
    23  C          0.70876000       0.74750850       0.66558000
    24  C          0.29124000       0.24750850       0.83442000
    25  H          0.31690000       0.24780000       0.40040000
    26  H          0.68310000       0.74780000       0.09960000
    27  H          0.68310000       0.75220000       0.59960000
    28  H          0.31690000       0.25220000       0.90040000
    29  C          0.33724000       0.31250140       0.29462000
    30  C          0.66276000       0.81250140       0.20538000
    31  C          0.66276000       0.68749860       0.70538000
    32  C          0.33724000       0.18749860       0.79462000
    33  C          0.42134000       0.36579150       0.34862000
    34  C          0.57866000       0.86579150       0.15138000
    35  C          0.57866000       0.63420850       0.65138000
    36  C          0.42134000       0.13420850       0.84862000
    37  C          0.46534000       0.42398140       0.30882000
    38  C          0.53466000       0.92398140       0.19118000
    39  C          0.53466000       0.57601860       0.69118000
    40  C          0.46534000       0.07601860       0.80882000
    41  C          0.55294000       0.47868160       0.36292000
    42  C          0.44706000       0.97868160       0.13708000
    43  C          0.44706000       0.52131840       0.63708000
    44  C          0.55294000       0.02131840       0.86292000
    45  H          0.58360000       0.47640000       0.42930000
    46  H          0.41640000       0.97640000       0.07070000
    47  H          0.41640000       0.52360000       0.57070000
    48  H          0.58360000       0.02360000       0.92930000
    49  C          0.59204000       0.53370160       0.31963000
    50  C          0.40796000       0.03370160       0.18037000
    51  C          0.40796000       0.46629840       0.68037000
    52  C          0.59204000       0.96629840       0.81963000
    53  H          0.65100000       0.56840000       0.35650000
    54  H          0.34900000       0.06840000       0.14350000
    55  H          0.34900000       0.43160000       0.64350000
    56  H          0.65100000       0.93160000       0.85650000
    57  C          0.54445000       0.53913160       0.21923000
    58  C          0.45555000       0.03913160       0.28077000
    59  C          0.45555000       0.46086840       0.78077000
    60  C          0.54445000       0.96086840       0.71923000
    61  H          0.57110000       0.57740000       0.19030000
    62  H          0.42890000       0.07740000       0.30970000
    63  H          0.42890000       0.42260000       0.80970000
    64  H          0.57110000       0.92260000       0.69030000
    65  C          0.46034000       0.48898150       0.16502000
    66  C          0.53966000       0.98898150       0.33498000
    67  C          0.53966000       0.51101850       0.83498000
    68  C          0.46034000       0.01101850       0.66502000
    69  H          0.42830000       0.49360000       0.09890000
    70  H          0.57170000      -0.00640000       0.40110000
    71  H          0.57170000       0.50640000       0.90110000
    72  H          0.42830000       0.00640000       0.59890000
    73  C          0.41904000       0.42885140       0.20652000
    74  C          0.58096000       0.92885140       0.29348000
    75  C          0.58096000       0.57114860       0.79348000
    76  C          0.41904000       0.07114860       0.70652000
    77  C          0.17284000       0.20777160       0.17773000
    78  C          0.82716000       0.70777160       0.32227000
    79  C          0.82716000       0.79222840       0.82227000
    80  C          0.17284000       0.29222840       0.67773000
    81  H          0.11920000       0.17290000       0.13960000
    82  H          0.88080000       0.67290000       0.36040000
    83  H          0.88080000       0.82710000       0.86040000
    84  H          0.11920000       0.32710000       0.63960000
    85  C          0.21384000       0.26344150       0.13732000
    86  C          0.78616000       0.76344150       0.36268000
    87  C          0.78616000       0.73655850       0.86268000
    88  C          0.21384000       0.23655850       0.63732000
    89  H          0.18830000       0.26610000       0.07100000
    90  H          0.81170000       0.76610000       0.42900000
    91  H          0.81170000       0.73390000       0.92900000
    92  H          0.18830000       0.23390000       0.57100000
    93  C          0.29524000       0.31861140       0.19262000
    94  C          0.70476000       0.81861140       0.30738000
    95  C          0.70476000       0.68138860       0.80738000
    96  C          0.29524000       0.18138860       0.69262000
    97  C          0.33414000       0.37644140       0.14922000
    98  C          0.66586000       0.87644140       0.35078000
    99  C          0.66586000       0.62355860       0.85078000
   100  C          0.33414000       0.12355860       0.64922000
   101  B          0.28335000       0.38307180       0.03583000
   102  B          0.71665000       0.88307180       0.46417000
   103  B          0.71665000       0.61692820       0.96417000
   104  B          0.28335000       0.11692820       0.53583000
   105  O         -0.01686000       0.37408160       0.47459180
   106  O          0.01686000       0.87408160       0.02540820
   107  O          0.01686000       0.62591840       0.52540820
   108  O         -0.01686000       0.12591840       0.97459180
   109  O          0.80613000       0.37070120       0.09167160
   110  O          0.19387000       0.87070120       0.40832840
   111  O          0.19387000       0.62929880       0.90832840
   112  O          0.80613000       0.12929880       0.59167160
   113  C          0.05035000       0.53977170       0.23233000
   114  C          0.94965000       0.03977170       0.26767000
   115  C          0.94965000       0.46022830       0.76767000
   116  C          0.05035000       0.96022830       0.73233000
   117  H          0.07130000       0.57680000       0.19880000
   118  H          0.92870000       0.07680000       0.30120000
   119  H          0.92870000       0.42320000       0.80120000
   120  H          0.07130000       0.92320000       0.69880000
   121  C          0.96755000       0.48523160       0.18333000
   122  C          0.03245000       0.98523160       0.31667000
   123  C          0.03245000       0.51476840       0.81667000
   124  C          0.96755000       0.01476840       0.68333000
   125  H          0.93270000       0.48570000       0.11680000
   126  H          0.06730000       0.98570000       0.38320000
   127  H          0.06730000       0.51430000       0.88320000
   128  H          0.93270000       0.01430000       0.61680000
   129  C          0.93614000       0.42953150       0.23292000
   130  C          0.06386000       0.92953150       0.26708000
   131  C          0.06386000       0.57046850       0.76708000
   132  C          0.93614000       0.07046850       0.73292000
   133  C          0.84704000       0.37146150       0.17962000
   134  C          0.15296000       0.87146150       0.32038000
   135  C          0.15296000       0.62853850       0.82038000
   136  C          0.84704000       0.12853850       0.67962000
   137  C          0.80934000       0.31419150       0.23462000
   138  C          0.19066000       0.81419150       0.26538000
   139  C          0.19066000       0.68580850       0.76538000
   140  C          0.80934000       0.18580850       0.73462000
   141  C          0.72635000       0.25887160       0.18653000
   142  C          0.27365000       0.75887160       0.31347000
   143  C          0.27365000       0.74112840       0.81347000
   144  C          0.72635000       0.24112840       0.68653000
   145  H          0.69550000       0.25800000       0.12010000
   146  H          0.30450000       0.75800000       0.37990000
   147  H          0.30450000       0.74200000       0.87990000
   148  H          0.69550000       0.24200000       0.62010000
   149  C          0.68985000       0.20539170       0.23703000
   150  C          0.31015000       0.70539170       0.26297000
   151  C          0.31015000       0.79460830       0.76297000
   152  C          0.68985000       0.29460830       0.73703000
   153  H          0.63280000       0.16870000       0.20450000
   154  H          0.36720000       0.66870000       0.29550000
   155  H          0.36720000       0.83130000       0.79550000
   156  H          0.63280000       0.33130000       0.70450000
   157  C          0.73735000       0.20576170       0.33563000
   158  C          0.26265000       0.70576170       0.16437000
   159  C          0.26265000       0.79423830       0.66437000
   160  C          0.73735000       0.29423830       0.83563000
   161  H          0.71320000       0.16930000       0.36940000
   162  H          0.28680000       0.66930000       0.13060000
   163  H          0.28680000       0.83070000       0.63060000
   164  H          0.71320000       0.33070000       0.86940000
   165  C          0.85734000       0.31480160       0.33442000
   166  C          0.14266000       0.81480160       0.16558000
   167  C          0.14266000       0.68519840       0.66558000
   168  C          0.85734000       0.18519840       0.83442000
   169  C          0.82025000       0.26007180       0.38383000
   170  C          0.17975000       0.76007180       0.11617000
   171  C          0.17975000       0.73992820       0.61617000
   172  C          0.82025000       0.23992820       0.88383000
   173  H          0.85190000       0.26020000       0.45030000
   174  H          0.14810000       0.76020000       0.04970000
   175  H          0.14810000       0.73980000       0.54970000
   176  H          0.85190000       0.23980000       0.95030000
   177  C          0.94634000       0.37285170       0.38832000
   178  C          0.05366000       0.87285170       0.11168000
   179  C          0.05366000       0.62714830       0.61168000
   180  C          0.94634000       0.12714830       0.88832000
   181  C         -0.01426000       0.42963160       0.33272000
   182  C          0.01426000       0.92963160       0.16728000
   183  C          0.01426000       0.57036840       0.66728000
   184  C         -0.01426000       0.07036840       0.83272000
   185  C          0.10145000       0.53936180       0.33043000
   186  C          0.89855000       0.03936180       0.16957000
   187  C          0.89855000       0.46063820       0.66957000
   188  C          0.10145000       0.96063820       0.83043000
   189  H          0.15760000       0.57610000       0.36300000
   190  H          0.84240000       0.07610000       0.13700000
   191  H          0.84240000       0.42390000       0.63700000
   192  H          0.15760000       0.92390000       0.86300000
   193  C          0.06994000       0.48475170       0.38113000
   194  C          0.93006000       0.98475170       0.11887000
   195  C          0.93006000       0.51524830       0.61887000
   196  C          0.06994000       0.01524830       0.88113000
   197  H          0.10500000       0.48490000       0.44750000
   198  H          0.89500000       0.98490000       0.05250000
   199  H          0.89500000       0.51510000       0.55250000
   200  H          0.10500000       0.01510000       0.94750000
