data_MELYUB
_symmetry_space_group_name_H-M    'P1'
_symmetry_Int_Tables_number       1
loop_
_symmetry_equiv_pos_site_id
_symmetry_equiv_pos_as_xyz
1 x,y,z
_cell_length_a                   10.8401011
_cell_length_b                   7.447747
_cell_length_c                   11.9568712
_cell_angle_alpha                90.0
_cell_angle_beta                 100.60981
_cell_angle_gamma                90.0
loop_
_atom_site_label
_atom_site_type_symbol
_atom_site_fract_x
_atom_site_fract_y
_atom_site_fract_z
     1  I          0.20821200       0.07618200       0.82345200
     2  I          0.79178800       0.57618200       0.67654800
     3  I          0.79178800       0.92381800       0.17654800
     4  I          0.20821200       0.42381800       0.32345200
     5  F          0.30683180       0.12044000       0.09461170
     6  F          0.69316820       0.62044000       0.40538830
     7  F          0.69316820       0.87956000       0.90538830
     8  F          0.30683180       0.37956000       0.59461170
     9  F          0.47062000       0.93296000       0.77467180
    10  F          0.52938000       0.43296000       0.72532820
    11  F          0.52938000       0.06704000       0.22532820
    12  F          0.47062000       0.56704000       0.27467180
    13  C          0.38143000       0.02944000       0.92982000
    14  C          0.61857000       0.52944000       0.57018000
    15  C          0.61857000       0.97056000       0.07018000
    16  C          0.38143000       0.47056000       0.42982000
    17  C          0.40153000       0.06074000       0.04533000
    18  C          0.59847000       0.56074000       0.45467000
    19  C          0.59847000       0.93926000       0.95467000
    20  C          0.40153000       0.43926000       0.54533000
    21  C          0.48293000       0.96815000       0.88623000
    22  C          0.51707000       0.46815000       0.61377000
    23  C          0.51707000       0.03185000       0.11377000
    24  C          0.48293000       0.53185000       0.38623000
    25  N          0.98358000       0.14323000       0.66242000
    26  N          0.01642000       0.64323000       0.83758000
    27  N          0.01642000       0.85677000       0.33758000
    28  N          0.98358000       0.35677000       0.16242000
    29  N          0.55578000       0.03714000       0.48792000
    30  N          0.44422000       0.53714000       0.01208000
    31  N          0.44422000       0.96286000       0.51208000
    32  N          0.55578000       0.46286000       0.98792000
    33  C          0.00753000       0.21704000       0.56663000
    34  C         -0.00753000       0.71704000       0.93337000
    35  C         -0.00753000       0.78296000       0.43337000
    36  C          0.00753000       0.28296000       0.06663000
    37  H          0.08982400       0.26030300       0.56612300
    38  H          0.91017600       0.76030300       0.93387700
    39  H          0.91017600       0.73969700       0.43387700
    40  H          0.08982400       0.23969700       0.06612300
    41  C          0.91827000       0.23374000       0.46793000
    42  C          0.08173000       0.73374000       0.03207000
    43  C          0.08173000       0.76626000       0.53207000
    44  C          0.91827000       0.26626000       0.96793000
    45  H          0.93953700       0.28734500       0.40188100
    46  H          0.06046300       0.78734500       0.09811900
    47  H          0.06046300       0.71265500       0.59811900
    48  H          0.93953700       0.21265500       0.90188100
    49  C          0.79787000       0.17104000       0.46692000
    50  C          0.20213000       0.67104000       0.03308000
    51  C          0.20213000       0.82896000       0.53308000
    52  C          0.79787000       0.32896000       0.96692000
    53  H          0.73502700       0.18055900       0.40037100
    54  H          0.26497300       0.68055900       0.09962900
    55  H          0.26497300       0.81944100       0.59962900
    56  H          0.73502700       0.31944100       0.90037100
    57  C          0.77117000       0.09364000       0.56583000
    58  C          0.22883000       0.59364000       0.93417000
    59  C          0.22883000       0.90636000       0.43417000
    60  C          0.77117000       0.40636000       0.06583000
    61  C          0.86727000       0.08113000       0.66063000
    62  C          0.13273000       0.58113000       0.83937000
    63  C          0.13273000       0.91887000       0.33937000
    64  C          0.86727000       0.41887000       0.16063000
    65  H          0.84928600       0.02577000       0.72733400
    66  H          0.15071400       0.52577000       0.77266600
    67  H          0.15071400       0.97423000       0.27266600
    68  H          0.84928600       0.47423000       0.22733400
    69  C          0.64597000       0.02454000       0.57332000
    70  C          0.35403000       0.52454000       0.92668000
    71  C          0.35403000       0.97546000       0.42668000
    72  C          0.64597000       0.47546000       0.07332000
    73  H          0.63192100       0.97033000       0.64173800
    74  H          0.36807900       0.47033000       0.85826200
    75  H          0.36807900       0.02967000       0.35826200
    76  H          0.63192100       0.52967000       0.14173800
