data_MELYOV
_symmetry_space_group_name_H-M    'P1'
_symmetry_Int_Tables_number       1
loop_
_symmetry_equiv_pos_site_id
_symmetry_equiv_pos_as_xyz
1 x,y,z
_cell_length_a                   8.1982011
_cell_length_b                   9.9483212
_cell_length_c                   11.7064914
_cell_angle_alpha                90.0
_cell_angle_beta                 91.413312
_cell_angle_gamma                90.0
loop_
_atom_site_label
_atom_site_type_symbol
_atom_site_fract_x
_atom_site_fract_y
_atom_site_fract_z
     1  I          0.87684200       0.11481200       0.72842200
     2  I          0.12315800       0.61481200       0.77157800
     3  I          0.12315800       0.88518800       0.27157800
     4  I          0.87684200       0.38518800       0.22842200
     5  F          0.79013000       0.85128000       0.86884180
     6  F          0.20987000       0.35128000       0.63115820
     7  F          0.20987000       0.14872000       0.13115820
     8  F          0.79013000       0.64872000       0.36884180
     9  F          0.11982000       0.23746190       0.92362170
    10  F          0.88018000       0.73746190       0.57637830
    11  F          0.88018000       0.76253810       0.07637830
    12  F          0.11982000       0.26253810       0.42362170
    13  C          0.95304000       0.04653000       0.89013000
    14  C          0.04696000       0.54653000       0.60987000
    15  C          0.04696000       0.95347000       0.10987000
    16  C          0.95304000       0.45347000       0.39013000
    17  C          0.89544000       0.92617000       0.93293000
    18  C          0.10456000       0.42617000       0.56707000
    19  C          0.10456000       0.07383000       0.06707000
    20  C          0.89544000       0.57383000       0.43293000
    21  C          0.05995000       0.11943000       0.95953000
    22  C          0.94005000       0.61943000       0.54047000
    23  C          0.94005000       0.88057000       0.04047000
    24  C          0.05995000       0.38057000       0.45953000
    25  N          0.73844000       0.14513000       0.49703000
    26  N          0.26156000       0.64513000       0.00297000
    27  N          0.26156000       0.85487000       0.50297000
    28  N          0.73844000       0.35487000      -0.00297000
    29  N          0.49723000       0.44013000       0.46822000
    30  N          0.50277000       0.94013000       0.03178000
    31  N          0.50277000       0.55987000       0.53178000
    32  N          0.49723000       0.05987000       0.96822000
    33  C          0.76144000       0.02533000       0.44823000
    34  C          0.23856000       0.52533000       0.05177000
    35  C          0.23856000       0.97467000       0.55177000
    36  C          0.76144000       0.47467000       0.94823000
    37  H          0.84490700       0.96894200       0.47913300
    38  H          0.15509300       0.46894200       0.02086700
    39  H          0.15509300       0.03105800       0.52086700
    40  H          0.84490700       0.53105800       0.97913300
    41  C          0.67044000       0.97857000       0.35503000
    42  C          0.32956000       0.47857000       0.14497000
    43  C          0.32956000       0.02143000       0.64497000
    44  C          0.67044000       0.52143000       0.85503000
    45  H          0.69425300       0.89426100       0.32134700
    46  H          0.30574700       0.39426100       0.17865300
    47  H          0.30574700       0.10573900       0.67865300
    48  H          0.69425300       0.60573900       0.82134700
    49  C          0.54394000       0.05753000       0.31213000
    50  C          0.45606000       0.55753000       0.18787000
    51  C          0.45606000       0.94247000       0.68787000
    52  C          0.54394000       0.44247000       0.81213000
    53  H          0.47780800       0.02758400       0.24937800
    54  H          0.52219200       0.52758400       0.25062200
    55  H          0.52219200       0.97241600       0.75062200
    56  H          0.47780800       0.47241600       0.74937800
    57  C          0.51594000       0.18133000       0.36283000
    58  C          0.48406000       0.68133000       0.13717000
    59  C          0.48406000       0.81867000       0.63717000
    60  C          0.51594000       0.31867000       0.86283000
    61  H          0.42961300       0.23754800       0.33573400
    62  H          0.57038700       0.73754800       0.16426600
    63  H          0.57038700       0.76245200       0.66426600
    64  H          0.42961300       0.26245200       0.83573400
    65  C          0.61634000       0.22123000       0.45383000
    66  C          0.38366000       0.72123000       0.04617000
    67  C          0.38366000       0.77877000       0.54617000
    68  C          0.61634000       0.27877000       0.95383000
    69  C          0.59874000       0.35303000       0.50833000
    70  C          0.40126000       0.85303000      -0.00833000
    71  C          0.40126000       0.64697000       0.49167000
    72  C          0.59874000       0.14697000       0.00833000
    73  H          0.66346900       0.37409900       0.57433000
    74  H          0.33653100       0.87409900       0.92567000
    75  H          0.33653100       0.62590100       0.42567000
    76  H          0.66346900       0.12590100       0.07433000
