data_MENGEV
_symmetry_space_group_name_H-M    'P1'
_symmetry_Int_Tables_number       1
loop_
_symmetry_equiv_pos_site_id
_symmetry_equiv_pos_as_xyz
1 x,y,z
_cell_length_a                   8.916171
_cell_length_b                   10.2873311
_cell_length_c                   12.3126612
_cell_angle_alpha                75.43579
_cell_angle_beta                 80.06129
_cell_angle_gamma                75.42311
loop_
_atom_site_label
_atom_site_type_symbol
_atom_site_fract_x
_atom_site_fract_y
_atom_site_fract_z
     1  I          0.33625300       0.85716200       0.71196200
     2  I          0.66374700       0.14283800       0.28803800
     3  I          0.28060300       0.48578200       0.32251200
     4  I          0.71939700       0.51421800       0.67748800
     5  F          0.51133000       0.84412000       0.45862000
     6  F          0.48867000       0.15588000       0.54138000
     7  F          0.49313000       0.69812000       0.31336180
     8  F          0.50687000       0.30188000       0.68663820
     9  F          0.13123000       0.48222000       0.57874190
    10  F          0.86877000       0.51778000       0.42125810
    11  F          0.14913000       0.62822000       0.72379180
    12  F          0.85087000       0.37178000       0.27620820
    13  C          0.32864000       0.74284000       0.59593000
    14  C          0.67136000       0.25716000       0.40407000
    15  C          0.41524000       0.75614000       0.48993000
    16  C          0.58476000       0.24386000       0.51007000
    17  C          0.40464000       0.68144000       0.41413000
    18  C          0.59536000       0.31856000       0.58587000
    19  C          0.30804000       0.58904000       0.43983000
    20  C          0.69196000       0.41096000       0.56017000
    21  C          0.22464000       0.57304000       0.54703000
    22  C          0.77536000       0.42696000       0.45297000
    23  C          0.23514000       0.64784000       0.62223000
    24  C          0.76486000       0.35216000       0.37777000
    25  I          0.85278700       0.04125200       0.77484200
    26  I          0.14721300       0.95874800       0.22515800
    27  F          0.07503000       0.19722000       0.57747190
    28  F          0.92497000       0.80278000       0.42252810
    29  F          0.80587000       0.84098000       0.62867190
    30  F          0.19413000       0.15902000       0.37132810
    31  C          0.93676000       0.02003000       0.60953000
    32  C          0.06324000       0.97997000       0.39047000
    33  C          0.03674000       0.09904000       0.54113000
    34  C          0.96326000       0.90096000       0.45887000
    35  C          0.90206000       0.92036000       0.56603000
    36  C          0.09794000       0.07964000       0.43397000
    37  S          0.74592110       0.00830900       0.06502800
    38  S          0.25407890      -0.00830900       0.93497200
    39  S          0.22053110       0.35089900       0.11319800
    40  S          0.77946890       0.64910100       0.88680200
    41  N          0.80104000       0.75774000       0.19843000
    42  N          0.19896000       0.24226000       0.80157000
    43  H          0.85740000       0.67720000       0.20930000
    44  H          0.14260000       0.32280000       0.79070000
    45  H          0.71630000       0.78740000       0.23730000
    46  H          0.28370000       0.21260000       0.76270000
    47  N          0.97464000       0.79503000       0.04183000
    48  N          0.02536000       0.20497000       0.95817000
    49  H          0.01550000       0.85140000       0.98770000
    50  H          0.98450000       0.14860000       0.01230000
    51  N          0.05023000       0.65893000       0.06813000
    52  N          0.94977000       0.34107000       0.93187000
    53  C          0.84544000       0.84313000       0.10593000
    54  C          0.15456000       0.15687000       0.89407000
    55  C          0.16514000       0.62474000      -0.00503000
    56  C          0.83486000       0.37526000       0.00503000
    57  H          0.18947500       0.69195700       0.93276400
    58  H          0.81052500       0.30804300       0.06723600
    59  C          0.25824000       0.48654000       0.00523000
    60  C          0.74176000       0.51346000      -0.00523000
    61  C          0.37864000       0.24024000       0.06063000
    62  C          0.62136000       0.75976000       0.93937000
    63  H          0.40841000       0.14740300       0.09417500
    64  H          0.59159000       0.85259700       0.90582500
    65  C          0.45445000       0.30264000       0.96537000
    66  C          0.54555000       0.69736000       0.03463000
    67  H          0.54218200       0.25784600       0.92553800
    68  H          0.45781800       0.74215400       0.07446200
    69  C          0.38485000       0.44514000       0.93247000
    70  C          0.61515000       0.55486000       0.06753000
    71  H          0.42180200       0.50360800       0.86841700
    72  H          0.57819800       0.49639200       0.13158300
