data_MENGOF
_symmetry_space_group_name_H-M    'P1'
_symmetry_Int_Tables_number       1
loop_
_symmetry_equiv_pos_site_id
_symmetry_equiv_pos_as_xyz
1 x,y,z
_cell_length_a                   6.187301
_cell_length_b                   8.98122
_cell_length_c                   12.76642
_cell_angle_alpha                85.45701
_cell_angle_beta                 81.9102
_cell_angle_gamma                73.4482
loop_
_atom_site_label
_atom_site_type_symbol
_atom_site_fract_x
_atom_site_fract_y
_atom_site_fract_z
     1  I          0.83019700       0.65823200       0.11427200
     2  I          0.16980300       0.34176800       0.88572800
     3  F          0.85217000       0.00962000       0.10143150
     4  F          0.14783000      -0.00962000       0.89856850
     5  F          0.60507000       0.27062000       0.01501160
     6  F          0.39493000       0.72938000       0.98498840
     7  C          0.63195000       0.86214000       0.04632000
     8  C          0.36805000       0.13786000       0.95368000
     9  C          0.67745000       0.00244000       0.05113000
    10  C          0.32255000      -0.00244000       0.94887000
    11  C          0.54975000       0.13824000       0.00622000
    12  C          0.45025000       0.86176000      -0.00622000
    13  S          0.11869140       0.71898900       0.50613700
    14  S          0.88130860       0.28101100       0.49386300
    15  S          0.18664130       0.07740100       0.24480600
    16  S          0.81335870       0.92259900       0.75519400
    17  N          0.75725000       0.67736000       0.43333000
    18  N          0.24275000       0.32264000       0.56667000
    19  N          0.79465000       0.92297000       0.41782000
    20  N          0.20535000       0.07703000       0.58218000
    21  N          0.60424000       0.97057000       0.36612000
    22  N          0.39576000       0.02943000       0.63388000
    23  N          0.08375000       0.36963000       0.19972000
    24  N          0.91625000       0.63037000       0.80028000
    25  C          0.87435000       0.77306000       0.44902000
    26  C          0.12565000       0.22694000       0.55098000
    27  C          0.54775000       0.11594000       0.33872000
    28  C          0.45225000       0.88406000       0.66128000
    29  H          0.63311700       0.17873200       0.35544400
    30  H          0.36688300       0.82126800       0.64455600
    31  C          0.35425000       0.18324000       0.28232000
    32  C          0.64575000       0.81676000       0.71768000
    33  C          0.27535000       0.33664000       0.25142000
    34  C          0.72465000       0.66336000       0.74858000
    35  C          0.02286000       0.24544000       0.19143000
    36  C          0.97714000       0.75456000       0.80857000
    37  H          0.89742800       0.24707500       0.15828000
    38  H          0.10257200       0.75292500       0.84172000
    39  C          0.37166000       0.46634000       0.26723000
    40  C          0.62834000       0.53366000       0.73277000
    41  H          0.39484800       0.52077000       0.20067700
    42  H          0.60515200       0.47923000       0.79932300
    43  H          0.51414600       0.42507000       0.29497700
    44  H          0.48585400       0.57493000       0.70502300
    45  H          0.26784300       0.53671800       0.31623900
    46  H          0.73215700       0.46328200       0.68376100
    47  H          0.85960000      -0.01430000       0.43630000
    48  H          0.14040000       0.01430000       0.56370000
    49  H          0.63550000       0.70750000       0.40530000
    50  H          0.36450000       0.29250000       0.59470000
    51  H          0.80380000       0.57870000       0.45140000
    52  H          0.19620000       0.42130000       0.54860000
