data_MENHAS
_symmetry_space_group_name_H-M    'P1'
_symmetry_Int_Tables_number       1
loop_
_symmetry_equiv_pos_site_id
_symmetry_equiv_pos_as_xyz
1 x,y,z
_cell_length_a                   7.5911513
_cell_length_b                   8.8438614
_cell_length_c                   10.3810416
_cell_angle_alpha                86.540413
_cell_angle_beta                 69.989115
_cell_angle_gamma                74.090615
loop_
_atom_site_label
_atom_site_type_symbol
_atom_site_fract_x
_atom_site_fract_y
_atom_site_fract_z
     1  I          0.23982500       0.89546400       0.04519300
     2  I          0.76017500       0.10453600       0.95480700
     3  F          0.29075000       0.62374000       0.25803000
     4  F          0.70925000       0.37626000       0.74197000
     5  F          0.50945000       0.32714000       0.22343000
     6  F          0.49055000       0.67286000       0.77657000
     7  C          0.38668000       0.65746000       0.01796000
     8  C          0.61332000       0.34254000       0.98204000
     9  C          0.39538000       0.56596000       0.12946000
    10  C          0.60462000       0.43404000       0.87054000
    11  C          0.50798000       0.41137000       0.11156000
    12  C          0.49202000       0.58863000       0.88844000
    13  S          0.12232000       0.29618160       0.10293140
    14  S          0.87768000       0.70381840       0.89706860
    15  N          0.94677000       0.39856000       0.36355000
    16  N          0.05323000       0.60144000       0.63645000
    17  H          0.85510000       0.46090000       0.42770000
    18  H          0.14490000       0.53910000       0.57230000
    19  H          0.00012000       0.31060000       0.39190000
    20  H         -0.00012000       0.68940000       0.60810000
    21  N          0.84117000       0.55366000       0.20555000
    22  N          0.15883000       0.44634000       0.79445000
    23  H          0.87712000       0.57110000       0.12030000
    24  H          0.12288000       0.42890000       0.87970000
    25  N          0.69907000       0.64815000       0.31195000
    26  N          0.30093000       0.35185000       0.68805000
    27  N          0.18847000       0.12545000       0.44565000
    28  N          0.81153000       0.87455000       0.55435000
    29  C          0.96038000       0.42256000       0.23426000
    30  C          0.03962000       0.57744000       0.76574000
    31  C          0.59668000       0.77496000       0.28016000
    32  C          0.40332000       0.22504000       0.71984000
    33  H          0.62450700       0.80245400       0.18887900
    34  H          0.37549300       0.19754600       0.81112100
    35  C          0.43508000       0.87736000       0.38755000
    36  C          0.56492000       0.12264000       0.61245000
    37  C          0.33918000       0.02526000       0.35526000
    38  C          0.66082000       0.97474000       0.64474000
    39  H          0.38277500       0.05599400       0.26516700
    40  H          0.61722500       0.94400600       0.73483300
    41  C          0.12938000       0.07916000       0.57476000
    42  C          0.87062000       0.92084000       0.42524000
    43  H          0.02454800       0.14726900       0.63913500
    44  H          0.97545200       0.85273100       0.36086500
    45  C          0.21458000       0.93677000       0.61766000
    46  C          0.78542000       0.06323000       0.38234000
    47  H          0.16854000       0.90990900       0.70871400
    48  H          0.83146000       0.09009100       0.29128600
    49  C          0.37138000       0.83306000       0.52216000
    50  C          0.62862000       0.16694000       0.47784000
    51  H          0.43196400       0.73585200       0.54830700
    52  H          0.56803600       0.26414800       0.45169300
