data_MENQOP
_symmetry_space_group_name_H-M    'P1'
_symmetry_Int_Tables_number       1
loop_
_symmetry_equiv_pos_site_id
_symmetry_equiv_pos_as_xyz
1 x,y,z
_cell_length_a                   13.501714
_cell_length_b                   5.57697
_cell_length_c                   18.381218
_cell_angle_alpha                90.0
_cell_angle_beta                 108.9796
_cell_angle_gamma                90.0
loop_
_atom_site_label
_atom_site_type_symbol
_atom_site_fract_x
_atom_site_fract_y
_atom_site_fract_z
     1  Br         0.29615200       0.35950600       0.48540200
     2  Br         0.70384800       0.85950600       0.01459800
     3  Br         0.70384800       0.64049400       0.51459800
     4  Br         0.29615200       0.14049400       0.98540200
     5  N          0.34490190       0.82195000       0.34761150
     6  N          0.65509810       0.32195000       0.15238850
     7  N          0.65509810       0.17805000       0.65238850
     8  N          0.34490190       0.67805000       0.84761150
     9  N          0.48172000       0.70906000       0.30582180
    10  N          0.51828000       0.20906000       0.19417820
    11  N          0.51828000       0.29094000       0.69417820
    12  N          0.48172000       0.79094000       0.80582180
    13  H          0.44430000       0.59380000       0.28120000
    14  H          0.55570000       0.09380000       0.21880000
    15  H          0.55570000       0.40620000       0.71880000
    16  H          0.44430000       0.90620000       0.78120000
    17  H          0.54030000       0.73070000       0.30120000
    18  H          0.45970000       0.23070000       0.19880000
    19  H          0.45970000       0.26930000       0.69880000
    20  H          0.54030000       0.76930000       0.80120000
    21  C          0.44272000       0.86506000       0.34555170
    22  C          0.55728000       0.36506000       0.15444830
    23  C          0.55728000       0.13494000       0.65444830
    24  C          0.44272000       0.63494000       0.84555170
    25  C          0.50062000       0.06306000       0.38388180
    26  C          0.49938000       0.56306000       0.11611820
    27  C          0.49938000       0.93694000       0.61611820
    28  C          0.50062000       0.43694000       0.88388180
    29  H          0.56870000       0.09300000       0.38140000
    30  H          0.43130000       0.59300000       0.11860000
    31  H          0.43130000       0.90700000       0.61860000
    32  H          0.56870000       0.40700000       0.88140000
    33  C          0.45832000       0.21266000       0.42492180
    34  C          0.54168000       0.71266000       0.07507820
    35  C          0.54168000       0.78734000       0.57507820
    36  C          0.45832000       0.28734000       0.92492180
    37  H          0.49650000       0.34700000       0.45140000
    38  H          0.50350000       0.84700000       0.04860000
    39  H          0.50350000       0.65300000       0.54860000
    40  H          0.49650000       0.15300000       0.95140000
    41  C          0.35772000       0.16386000       0.42713180
    42  C          0.64228000       0.66386000       0.07286820
    43  C          0.64228000       0.83614000       0.57286820
    44  C          0.35772000       0.33614000       0.92713180
    45  C          0.30472000       0.97096000       0.38832180
    46  C          0.69528000       0.47096000       0.11167820
    47  C          0.69528000       0.02904000       0.61167820
    48  C          0.30472000       0.52904000       0.88832180
    49  H          0.23620000       0.93990000       0.39000000
    50  H          0.76380000       0.43990000       0.11000000
    51  H          0.76380000       0.06010000       0.61000000
    52  H          0.23620000       0.56010000       0.89000000
    53  O          0.32863160       0.35914000       0.22257130
    54  O          0.67136840       0.85914000       0.27742870
    55  O          0.67136840       0.64086000       0.77742870
    56  O          0.32863160       0.14086000       0.72257130
    57  O          0.21079160       0.49814000       0.27356130
    58  O          0.78920840      -0.00186000       0.22643870
    59  O          0.78920840       0.50186000       0.72643870
    60  O          0.21079160       0.00186000       0.77356130
    61  H          0.26630000       0.61680000       0.30120000
    62  H          0.73370000       0.11680000       0.19880000
    63  H          0.73370000       0.38320000       0.69880000
    64  H          0.26630000       0.88320000       0.80120000
    65  C          0.24082000       0.35156000       0.22949180
    66  C          0.75918000       0.85156000       0.27050820
    67  C          0.75918000       0.64844000       0.77050820
    68  C          0.24082000       0.14844000       0.72949180
    69  C          0.16102000       0.17386000       0.18643170
    70  C          0.83898000       0.67386000       0.31356830
    71  C          0.83898000       0.82614000       0.81356830
    72  C          0.16102000       0.32614000       0.68643170
    73  C          0.18912000       0.00256000       0.14179170
    74  C          0.81088000       0.50256000       0.35820830
    75  C          0.81088000      -0.00256000       0.85820830
    76  C          0.18912000       0.49744000       0.64179170
    77  H          0.25920000      -0.00180000       0.14110000
    78  H          0.74080000       0.49820000       0.35890000
    79  H          0.74080000       0.00180000       0.85890000
    80  H          0.25920000       0.50180000       0.64110000
    81  C          0.11682000       0.83714000       0.09801180
    82  C          0.88318000       0.33714000       0.40198820
    83  C          0.88318000       0.16286000       0.90198820
    84  C          0.11682000       0.66286000       0.59801180
    85  C          0.01452000       0.84824000       0.10028180
    86  C          0.98548000       0.34824000       0.39971820
    87  C          0.98548000       0.15176000       0.89971820
    88  C          0.01452000       0.65176000       0.60028180
    89  H          0.96370000       0.73790000       0.07070000
    90  H          0.03630000       0.23790000       0.42930000
    91  H          0.03630000       0.26210000       0.92930000
    92  H          0.96370000       0.76210000       0.57070000
    93  C          0.98568000       0.01836000       0.14505190
    94  C          0.01432000       0.51836000       0.35494810
    95  C          0.01432000      -0.01836000       0.85494810
    96  C          0.98568000       0.48164000       0.64505190
    97  H          0.91580000       0.02220000       0.14610000
    98  H          0.08420000       0.52220000       0.35390000
    99  H          0.08420000      -0.02220000       0.85390000
   100  H          0.91580000       0.47780000       0.64610000
   101  C          0.05862000       0.18216000       0.18819180
   102  C          0.94138000       0.68216000       0.31180820
   103  C          0.94138000       0.81784000       0.81180820
   104  C          0.05862000       0.31784000       0.68819180
   105  H          0.03900000       0.29870000       0.21860000
   106  H          0.96100000       0.79870000       0.28140000
   107  H          0.96100000       0.70130000       0.78140000
   108  H          0.03900000       0.20130000       0.71860000
   109  C          0.14693000       0.65384000       0.04853190
   110  C          0.85307000       0.15384000       0.45146810
   111  C          0.85307000       0.34616000       0.95146810
   112  C          0.14693000       0.84616000       0.54853190
   113  H          0.22340000       0.64570000       0.06310000
   114  H          0.77660000       0.14570000       0.43690000
   115  H          0.77660000       0.35430000       0.93690000
   116  H          0.22340000       0.85430000       0.56310000
   117  H          0.11740000       0.70050000      -0.00570000
   118  H          0.88260000       0.20050000       0.50570000
   119  H          0.88260000       0.29950000       0.00570000
   120  H          0.11740000       0.79950000       0.49430000
   121  H          0.11940000       0.49650000       0.05600000
   122  H          0.88060000      -0.00350000       0.44400000
   123  H          0.88060000       0.50350000       0.94400000
   124  H          0.11940000       0.00350000       0.55600000
