data_MEQLOM
_symmetry_space_group_name_H-M    'P1'
_symmetry_Int_Tables_number       1
loop_
_symmetry_equiv_pos_site_id
_symmetry_equiv_pos_as_xyz
1 x,y,z
_cell_length_a                   6.749801
_cell_length_b                   22.77233
_cell_length_c                   16.60382
_cell_angle_alpha                90.0
_cell_angle_beta                 90.28101
_cell_angle_gamma                90.0
loop_
_atom_site_label
_atom_site_type_symbol
_atom_site_fract_x
_atom_site_fract_y
_atom_site_fract_z
     1  Cl         0.29637200       0.72444800       0.54407700
     2  Cl         0.70362800       0.22444800       0.45592300
     3  Cl         0.25504200       0.17506200       0.26811700
     4  Cl         0.74495800       0.67506200       0.73188300
     5  Cl         0.43044200       0.68987800       0.03045700
     6  Cl         0.56955800       0.18987800       0.96954300
     7  Cl         0.01091100       0.61599800       0.31517700
     8  Cl        -0.01091100       0.11599800       0.68482300
     9  O          0.24728000       0.96461300       0.01721100
    10  O          0.75272000       0.46461300       0.98278900
    11  O          0.49218000       0.97065400       0.16573200
    12  O          0.50782000       0.47065400       0.83426800
    13  O          0.75368000       0.06894700       0.16037900
    14  O          0.24632000       0.56894700       0.83962100
    15  O          0.33697000       0.90902300       0.54676200
    16  O          0.66303000       0.40902300       0.45323800
    17  N          0.30997000       0.84185200       0.44578890
    18  N          0.69003000       0.34185200       0.55421110
    19  N          0.28847000       0.96679200       0.28010900
    20  N          0.71153000       0.46679200       0.71989100
    21  C          0.30137000       0.01842100       0.32590870
    22  C          0.69863000       0.51842100       0.67409130
    23  H          0.30190000       0.05720000       0.30500000
    24  H          0.69810000       0.55720000       0.69500000
    25  N          0.29757000       0.76772200       0.35057870
    26  N          0.70243000       0.26772200       0.64942130
    27  N          0.28997000       0.86335200       0.30629900
    28  N          0.71003000       0.36335200       0.69370100
    29  C          0.31887000       0.89953100       0.47380880
    30  C          0.68113000       0.39953100       0.52619120
    31  C          0.30857000       0.94137100       0.40991880
    32  C          0.69143000       0.44137100       0.59008120
    33  C          0.29847000       0.82519100       0.36642880
    34  C          0.70153000       0.32519100       0.63357120
    35  C          0.48937000       0.01221900       0.09977880
    36  C          0.51063000       0.51221900       0.90022120
    37  H          0.57800000      -0.00180000       0.05570000
    38  H          0.42200000       0.49820000       0.94430000
    39  C          0.29527000       0.91997100       0.33156880
    40  C          0.70473000       0.41997100       0.66843120
    41  C          0.29537000       0.96116100       0.19340880
    42  C          0.70463000       0.46116100       0.80659120
    43  H          0.25430000       0.92040000       0.17850000
    44  H          0.74570000       0.42040000       0.82150000
    45  C          0.31317000       0.00377900       0.40537870
    46  C          0.68683000       0.50377900       0.59462130
    47  H          0.32280000       0.03020000       0.44950000
    48  H          0.67720000       0.53020000       0.55050000
    49  C          0.27577000       0.01329900       0.07032880
    50  C          0.72423000       0.51329900       0.92967120
    51  H          0.24140000       0.05140000       0.04390000
    52  H          0.75860000       0.55140000       0.95610000
    53  C          0.16297000       0.00443100       0.14854870
    54  C          0.83703000       0.50443100       0.85145130
    55  H          0.14950000       0.04170000       0.17860000
    56  H          0.85050000       0.54170000       0.82140000
    57  H          0.02980000       0.98770000       0.13850000
    58  H          0.97020000       0.48770000       0.86150000
    59  C          0.55807000       0.07168900       0.12935870
    60  C          0.44193000       0.57168900       0.87064130
    61  H          0.55310000       0.10010000       0.08430000
    62  H          0.44690000       0.60010000       0.91570000
    63  H          0.46760000       0.08570000       0.17200000
    64  H          0.53240000       0.58570000       0.82800000
    65  H          0.30760000       0.81558600       0.47548100
    66  H          0.69240000       0.31558600       0.52451900
    67  H          0.29050000       0.74338600       0.39080000
    68  H          0.70950000       0.24338600       0.60920000
    69  H          0.83340000       0.07981700       0.12280000
    70  H          0.16660000       0.57981700       0.87720000
    71  H          0.28760000       0.75688800       0.30318200
    72  H          0.71240000       0.25688800       0.69681800
    73  H          0.14050000       0.96568400      -0.00420000
    74  H          0.85950000       0.46568400       0.00420000
    75  O         -0.00452000       0.82530400       0.05202200
    76  O          0.00452000       0.32530400       0.94797800
    77  N          0.91118000       0.96788300       0.91169900
    78  N          0.08882000       0.46788300       0.08830100
    79  O          0.24788000       0.75900300       0.17058900
    80  O          0.75212000       0.25900300       0.82941100
    81  O          0.86218000       0.92470300       0.67121200
    82  O          0.13782000       0.42470300       0.32878800
    83  C          0.93037000       0.00583900       0.85219880
    84  C          0.06963000       0.50583900       0.14780120
    85  N          0.91117000       0.99022200       0.77234900
    86  N          0.08883000       0.49022200       0.22765100
    87  O          0.64957000       0.82787200       0.20984100
    88  O          0.35043000       0.32787200       0.79015900
    89  C          0.85937000       0.89146100       0.80766880
    90  C          0.14063000       0.39146100       0.19233120
    91  N          0.85027000       0.86499300       0.93696900
    92  N          0.14973000       0.36499300       0.06303100
    93  N          0.97077000       0.06209800       0.86650870
    94  N          0.02923000       0.56209800       0.13349130
    95  C          0.87507000       0.91191100       0.88667880
    96  C          0.12493000       0.41191100       0.11332120
    97  C          0.82807000       0.82956100       0.81082880
    98  C          0.17193000       0.32956100       0.18917120
    99  H          0.81410000       0.80370000       0.76620000
   100  H          0.18590000       0.30370000       0.23380000
   101  C          0.87627000       0.93326100       0.74395880
   102  C          0.12373000       0.43326100       0.25604120
   103  C          0.82227000       0.81472100       0.89000870
   104  C          0.17773000       0.31472100       0.10999130
   105  H          0.80230000       0.77620000       0.91030000
   106  H          0.19770000       0.27620000       0.08970000
   107  C          0.65227000       0.84470900       0.06136870
   108  C          0.34773000       0.34470900       0.93863130
   109  H          0.57520000       0.82090000       0.02240000
   110  H          0.42480000       0.32090000       0.97760000
   111  H          0.57070000       0.87850000       0.07880000
   112  H          0.42930000       0.37850000       0.92120000
   113  C          0.71627000       0.80752100       0.13366880
   114  C          0.28373000       0.30752100       0.86633120
   115  H          0.67280000       0.76600000       0.12550000
   116  H          0.32720000       0.26600000       0.87450000
   117  C          0.03877000       0.75356900       0.15750870
   118  C          0.96123000       0.25356900       0.84249130
   119  H          0.97630000       0.73910000       0.20760000
   120  H          0.02370000       0.23910000       0.79240000
   121  H          0.01480000       0.72400000       0.11490000
   122  H         -0.01480000       0.22400000       0.88510000
   123  C          0.94187000       0.81060100       0.13315880
   124  C          0.05813000       0.31060100       0.86684120
   125  H         -0.01300000       0.84260000       0.17030000
   126  H          0.01300000       0.34260000       0.82970000
   127  C          0.84667000       0.86564100       0.02414880
   128  C          0.15333000       0.36564100       0.97585120
   129  H          0.87820000       0.90610000       0.04400000
   130  H          0.12180000       0.40610000       0.95600000
   131  H          0.96770000       0.07361000       0.91058400
   132  H          0.03230000       0.57361000       0.08941600
   133  H         -0.01840000       0.08381200       0.83338300
   134  H          0.01840000       0.58381200       0.16661700
   135  H          0.92760000       0.01921200       0.73848400
   136  H          0.07240000       0.51921200       0.26151600
   137  H          0.31150000       0.74458400       0.12980000
   138  H          0.68850000       0.24458400       0.87020000
   139  H          0.52850000       0.82278600       0.21368100
   140  H          0.47150000       0.32278600       0.78631900
   141  O          0.92437000       0.11241800       0.02144900
   142  O          0.07563000       0.61241800       0.97855100
   143  H          0.02950000       0.13821300       0.03778200
   144  H          0.97050000       0.63821300       0.96221800
   145  H          0.83950000       0.13661300       0.01028200
   146  H          0.16050000       0.63661300       0.98971800
   147  N          0.80157000       0.72684200       0.49622900
   148  N          0.19843000       0.22684200       0.50377100
   149  N          0.79917000       0.02338800       0.38051890
   150  N          0.20083000       0.52338800       0.61948110
   151  C          0.80437000       0.84362100       0.45174880
   152  C          0.19563000       0.34362100       0.54825120
   153  C          0.81077000       0.74136900       0.41822870
   154  C          0.18923000       0.24136900       0.58177130
   155  H          0.81670000       0.71130000       0.37870000
   156  H          0.18330000       0.21130000       0.62130000
   157  C          0.80447000       0.90650100       0.42728880
   158  C          0.19553000       0.40650100       0.57271120
   159  C          0.81157000       0.79904900       0.39459880
   160  C          0.18843000       0.29904900       0.60540120
   161  H          0.81710000       0.80860000       0.33900000
   162  H          0.18290000       0.30860000       0.66100000
   163  C          0.77997000       0.98100100       0.32477880
   164  C          0.22003000       0.48100100       0.67522120
   165  H          0.76490000       0.99140000       0.26970000
   166  H          0.23510000       0.49140000       0.73030000
   167  C          0.80296000       0.66435900       0.51971860
   168  C          0.19704000       0.16435900       0.48028140
   169  H          0.71820000       0.64200000       0.48280000
   170  H          0.28180000       0.14200000       0.51720000
   171  H          0.75290000       0.66040000       0.57480000
   172  H          0.24710000       0.16040000       0.42520000
   173  H          0.93870000       0.64920000       0.51720000
   174  H          0.06130000       0.14920000       0.48280000
   175  C          0.78197000       0.92282900       0.34634880
   176  C          0.21803000       0.42282900       0.65365120
   177  H          0.76790000       0.89340000       0.30620000
   178  H          0.23210000       0.39340000       0.69380000
   179  C          0.82527000       0.95170900       0.48358870
   180  C          0.17473000       0.45170900       0.51641130
   181  H          0.84250000       0.94260000       0.53900000
   182  H          0.15750000       0.44260000       0.46100000
   183  C          0.79556000       0.08541100       0.35540860
   184  C          0.20444000       0.58541100       0.64459140
   185  H          0.92790000       0.09710000       0.33740000
   186  H          0.07210000       0.59710000       0.66260000
   187  H          0.75610000       0.11000000       0.40100000
   188  H          0.24390000       0.61000000       0.59900000
   189  H          0.70060000       0.09040000       0.31110000
   190  H          0.29940000       0.59040000       0.68890000
   191  C          0.82086000       0.00914100       0.45885870
   192  C          0.17914000       0.50914100       0.54114130
   193  H          0.83340000       0.03950000       0.49770000
   194  H          0.16660000       0.53950000       0.50230000
   195  C          0.79647000       0.82694900       0.53278880
   196  C          0.20353000       0.32694900       0.46721120
   197  H          0.79310000       0.85610000       0.57370000
   198  H          0.20690000       0.35610000       0.42630000
   199  C          0.79357000       0.76881900       0.55328870
   200  C          0.20643000       0.26881900       0.44671130
   201  H          0.78600000       0.75790000       0.60840000
   202  H          0.21400000       0.25790000       0.39160000
   203  O          0.20827000       0.17585800       0.08409890
   204  O          0.79173000       0.67585800       0.91590110
   205  H          0.30950000       0.18001400       0.05578100
   206  H          0.69050000       0.68001400       0.94421900
   207  H          0.23950000       0.17211600       0.13880000
   208  H          0.76050000       0.67211600       0.86120000
   209  C          0.37017000       0.89201100       0.79179880
   210  C          0.62983000       0.39201100       0.20820120
   211  N          0.30078000       0.77261300       0.80662900
   212  N          0.69922000       0.27261300       0.19337100
   213  N          0.45897000       0.07611800       0.76852890
   214  N          0.54103000       0.57611800       0.23147110
   215  C          0.33547000       0.86606100       0.86729880
   216  C          0.66453000       0.36606100       0.13270120
   217  H          0.33580000       0.88950000       0.91460000
   218  H          0.66420000       0.38950000       0.08540000
   219  C          0.33497000       0.79591100       0.73320880
   220  C          0.66503000       0.29591100       0.26679120
   221  H          0.33540000       0.77110000       0.68720000
   222  H          0.66460000       0.27110000       0.31280000
   223  C          0.36907000       0.85494100       0.72422880
   224  C          0.63093000       0.35494100       0.27577120
   225  H          0.39200000       0.87080000       0.67220000
   226  H          0.60800000       0.37080000       0.32780000
   227  C          0.46807000       0.05081900       0.84218880
   228  C          0.53193000       0.55081900       0.15781120
   229  H          0.49190000       0.07450000       0.88840000
   230  H          0.50810000       0.57450000       0.11160000
   231  C          0.25787000       0.70906100       0.81238870
   232  C          0.74213000       0.20906100       0.18761130
   233  H          0.12720000       0.70100000       0.78900000
   234  H          0.87280000       0.20100000       0.21100000
   235  H          0.25930000       0.69710000       0.86910000
   236  H          0.74070000       0.19710000       0.13090000
   237  H          0.35890000       0.68700000       0.78290000
   238  H          0.64110000       0.18700000       0.21710000
   239  C          0.42457000       0.04291900       0.70251870
   240  C          0.57543000       0.54291900       0.29748130
   241  H          0.41900000       0.06120000       0.65110000
   242  H          0.58100000       0.56120000       0.34890000
   243  C          0.39767000       0.98355100       0.70828880
   244  C          0.60233000       0.48355100       0.29171120
   245  H          0.37420000       0.96100000       0.66110000
   246  H          0.62580000       0.46100000       0.33890000
   247  C          0.44337000       0.99141100       0.85081880
   248  C          0.55663000       0.49141100       0.14918120
   249  H          0.45260000       0.97410000       0.90280000
   250  H          0.54740000       0.47410000       0.09720000
   251  C          0.30117000       0.80683100       0.87228880
   252  C          0.69883000       0.30683100       0.12771120
   253  H          0.27720000       0.78970000       0.92350000
   254  H          0.72280000       0.28970000       0.07650000
   255  C          0.48366000       0.14037900       0.76077860
   256  C          0.51634000       0.64037900       0.23922140
   257  H          0.45980000       0.15900000       0.81300000
   258  H          0.54020000       0.65900000       0.18700000
   259  H          0.38880000       0.15550000       0.72100000
   260  H          0.61120000       0.65550000       0.27900000
   261  H          0.61880000       0.14910000       0.74310000
   262  H          0.38120000       0.64910000       0.25690000
   263  C          0.40447000       0.95607100       0.78337880
   264  C          0.59553000       0.45607100       0.21662120
   265  O          0.37337000       0.61589100       0.43551890
   266  O          0.62663000       0.11589100       0.56448110
   267  H          0.26950000       0.61238300       0.40680000
   268  H          0.73050000       0.11238300       0.59320000
   269  H          0.35250000       0.64678500       0.46580000
   270  H          0.64750000       0.14678500       0.53420000
