data_MERLOK
_symmetry_space_group_name_H-M    'P1'
_symmetry_Int_Tables_number       1
loop_
_symmetry_equiv_pos_site_id
_symmetry_equiv_pos_as_xyz
1 x,y,z
_cell_length_a                   7.77304
_cell_length_b                   11.46766
_cell_length_c                   20.600611
_cell_angle_alpha                90.0
_cell_angle_beta                 90.0
_cell_angle_gamma                90.0
loop_
_atom_site_label
_atom_site_type_symbol
_atom_site_fract_x
_atom_site_fract_y
_atom_site_fract_z
     1  I          0.75969400       0.42596200       0.86894790
     2  I          0.74030600       0.57403800       0.36894790
     3  I          0.25969400       0.07403800       0.13105210
     4  I          0.24030600       0.92596200       0.63105210
     5  S          0.74892170       0.34130700       0.18691400
     6  S          0.75107830       0.65869300       0.68691400
     7  S          0.24892170       0.15869300       0.81308600
     8  S          0.25107830       0.84130700       0.31308600
     9  O          0.90533000       0.27643000       0.20291150
    10  O          0.59467000       0.72357000       0.70291150
    11  O          0.40533000       0.22357000       0.79708850
    12  O          0.09467000       0.77643000       0.29708850
    13  C          0.74966000       0.36212000       0.10165140
    14  C          0.75034000       0.63788000       0.60165140
    15  C          0.24966000       0.13788000       0.89834860
    16  C          0.25034000       0.86212000       0.39834860
    17  O          0.59343000       0.27613000       0.20141140
    18  O          0.90657000       0.72387000       0.70141140
    19  O          0.09343000       0.22387000       0.79858860
    20  O          0.40657000       0.77613000       0.29858860
    21  C          0.83445000       0.45823000       0.07613190
    22  C          0.66555000       0.54177000       0.57613190
    23  C          0.33445000       0.04177000       0.92386810
    24  C          0.16555000       0.95823000       0.42386810
    25  H          0.88910000       0.51250000       0.10420000
    26  H          0.61090000       0.48750000       0.60420000
    27  H          0.38910000       0.98750000       0.89580000
    28  H          0.11090000       0.01250000       0.39580000
    29  O          0.75004000       0.45826170       0.21519100
    30  O          0.74996000       0.54173830       0.71519100
    31  O          0.25004000       0.04173830       0.78480900
    32  O          0.24996000       0.95826170       0.28480900
    33  C          0.83885000       0.47453000       0.00922190
    34  C          0.66115000       0.52547000       0.50922190
    35  C          0.33885000       0.02547000       0.99077810
    36  C          0.16115000       0.97453000       0.49077810
    37  H          0.89630000       0.54000000       0.99120000
    38  H          0.60370000       0.46000000       0.49120000
    39  H          0.39630000       0.96000000       0.00880000
    40  H          0.10370000       0.04000000       0.50880000
    41  C          0.75836000       0.39402000       0.96910860
    42  C          0.74164000       0.60598000       0.46910860
    43  C          0.25836000       0.10598000       0.03089140
    44  C          0.24164000       0.89402000       0.53089140
    45  C          0.67775000       0.29773000      -0.00561190
    46  C          0.82225000       0.70227000       0.49438810
    47  C          0.17775000       0.20227000       0.00561190
    48  C          0.32225000       0.79773000       0.50561190
    49  H          0.62580000       0.24240000       0.96620000
    50  H          0.87420000       0.75760000       0.46620000
    51  H          0.12580000       0.25760000       0.03380000
    52  H          0.37420000       0.74240000       0.53380000
    53  C          0.67215000       0.28103000       0.06063190
    54  C          0.82785000       0.71897000       0.56063190
    55  C          0.17215000       0.21897000       0.93936810
    56  C          0.32785000       0.78103000       0.43936810
    57  H          0.61570000       0.21470000       0.07820000
    58  H          0.88430000       0.78530000       0.57820000
    59  H          0.11570000       0.28530000       0.92180000
    60  H          0.38430000       0.71470000       0.42180000
    61  N          0.24896000       0.38102000       0.20652120
    62  N          0.25104000       0.61898000       0.70652120
    63  N          0.74896000       0.11898000       0.79347880
    64  N          0.75104000       0.88102000       0.29347880
    65  H          0.15130000       0.34400000       0.19980000
    66  H          0.34870000       0.65600000       0.69980000
    67  H          0.65130000       0.15600000       0.80020000
    68  H          0.84870000       0.84400000       0.30020000
    69  H          0.34690000       0.34820000       0.19530000
    70  H          0.15310000       0.65180000       0.69530000
    71  H          0.84690000       0.15180000       0.80470000
    72  H          0.65310000       0.84820000       0.30470000
    73  N          0.10294000       0.53574000       0.25038190
    74  N          0.39706000       0.46426000       0.75038190
    75  N          0.60294000       0.96426000       0.74961810
    76  N          0.89706000       0.03574000       0.24961810
    77  H          0.00460000       0.49950000       0.24390000
    78  H          0.49540000       0.50050000       0.74390000
    79  H          0.50460000       0.00050000       0.75610000
    80  H         -0.00460000      -0.00050000       0.25610000
    81  H          0.10390000       0.60540000       0.26820000
    82  H          0.39610000       0.39460000       0.76820000
    83  H          0.60390000       0.89460000       0.73180000
    84  H          0.89610000       0.10540000       0.23180000
    85  N          0.39664000       0.54174000       0.24285180
    86  N          0.10336000       0.45826000       0.74285180
    87  N          0.89664000       0.95826000       0.75714820
    88  N          0.60336000       0.04174000       0.25714820
    89  H          0.39670000       0.61170000       0.26040000
    90  H          0.10330000       0.38830000       0.76040000
    91  H          0.89670000       0.88830000       0.73960000
    92  H          0.60330000       0.11170000       0.23960000
    93  H          0.49430000       0.50870000       0.23160000
    94  H          0.00570000       0.49130000       0.73160000
    95  H         -0.00570000      -0.00870000       0.76840000
    96  H          0.50570000       0.00870000       0.26840000
    97  C          0.24848000       0.48573000       0.23339140
    98  C          0.25152000       0.51427000       0.73339140
    99  C          0.74848000       0.01427000       0.76660860
   100  C          0.75152000       0.98573000       0.26660860
   101  C          0.68295000       0.82464000       0.06962000
   102  C          0.81705000       0.17536000       0.56962000
   103  C          0.18295000       0.67536000       0.93038000
   104  C          0.31705000       0.32464000       0.43038000
   105  C          0.64505000       0.77483000       0.01022000
   106  C          0.85495000       0.22517000       0.51022000
   107  C          0.14505000       0.72517000       0.98978000
   108  C          0.35495000       0.27483000       0.48978000
   109  H          0.58710000       0.70190000       0.00950000
   110  H          0.91290000       0.29810000       0.50950000
   111  H          0.08710000       0.79810000       0.99050000
   112  H          0.41290000       0.20190000       0.49050000
   113  C          0.68795000       0.82693000       0.95158000
   114  C          0.81205000       0.17307000       0.45158000
   115  C          0.18795000       0.67307000       0.04842000
   116  C          0.31205000       0.32693000       0.54842000
   117  C          0.77165000       0.93393000       0.95388000
   118  C          0.72835000       0.06607000       0.45388000
   119  C          0.27165000       0.56607000       0.04612000
   120  C          0.22835000       0.43393000       0.54612000
   121  H          0.80350000       0.97200000       0.91480000
   122  H          0.69650000       0.02800000       0.41480000
   123  H          0.30350000       0.52800000       0.08520000
   124  H          0.19650000       0.47200000       0.58520000
   125  C          0.80845000       0.98474000       0.01303000
   126  C          0.69155000       0.01526000       0.51303000
   127  C          0.30845000       0.51526000       0.98697000
   128  C          0.19155000       0.48474000       0.48697000
   129  H          0.86460000       0.05830000       0.01390000
   130  H          0.63540000       0.94170000       0.51390000
   131  H          0.36460000       0.44170000       0.98610000
   132  H          0.13540000       0.55830000       0.48610000
   133  C          0.76646000       0.93244000       0.07032000
   134  C          0.73354000       0.06756000       0.57032000
   135  C          0.26646000       0.56756000       0.92968000
   136  C          0.23354000       0.43244000       0.42968000
   137  H          0.79370000       0.96890000       0.11030000
   138  H          0.70630000       0.03110000       0.61030000
   139  H          0.29370000       0.53110000       0.88970000
   140  H          0.20630000       0.46890000       0.38970000
   141  C          0.63366000       0.76415000       0.13252000
   142  C          0.86634000       0.23585000       0.63252000
   143  C          0.13366000       0.73585000       0.86748000
   144  C          0.36634000       0.26415000       0.36748000
   145  H          0.59240000       0.68520000       0.12300000
   146  H          0.90760000       0.31480000       0.62300000
   147  H          0.09240000       0.81480000       0.87700000
   148  H          0.40760000       0.18520000       0.37700000
   149  H          0.54220000       0.80850000       0.15410000
   150  H          0.95780000       0.19150000       0.65410000
   151  H          0.04220000       0.69150000       0.84590000
   152  H          0.45780000       0.30850000       0.34590000
   153  H          0.73430000       0.75980000       0.16110000
   154  H          0.76570000       0.24020000       0.66110000
   155  H          0.23430000       0.74020000       0.83890000
   156  H          0.26570000       0.25980000       0.33890000
   157  C          0.64286000       0.76914000       0.88828000
   158  C          0.85714000       0.23086000       0.38828000
   159  C          0.14286000       0.73086000       0.11172000
   160  C          0.35714000       0.26914000       0.61172000
   161  H          0.74220000       0.77230000       0.85900000
   162  H          0.75780000       0.22770000       0.35900000
   163  H          0.24220000       0.72770000       0.14100000
   164  H          0.25780000       0.27230000       0.64100000
   165  H          0.54540000       0.80990000       0.86830000
   166  H          0.95460000       0.19010000       0.36830000
   167  H          0.04540000       0.69010000       0.13170000
   168  H          0.45460000       0.30990000       0.63170000
   169  H          0.61160000       0.68760000       0.89620000
   170  H          0.88840000       0.31240000       0.39620000
   171  H          0.11160000       0.81240000       0.10380000
   172  H          0.38840000       0.18760000       0.60380000
