data_MERLEA
_symmetry_space_group_name_H-M    'P1'
_symmetry_Int_Tables_number       1
loop_
_symmetry_equiv_pos_site_id
_symmetry_equiv_pos_as_xyz
1 x,y,z
_cell_length_a                   7.73745
_cell_length_b                   11.39248
_cell_length_c                   20.079914
_cell_angle_alpha                90.0
_cell_angle_beta                 90.0
_cell_angle_gamma                90.0
loop_
_atom_site_label
_atom_site_type_symbol
_atom_site_fract_x
_atom_site_fract_y
_atom_site_fract_z
     1  Br         0.24275800       0.43536300       0.13318817
     2  Br         0.25724200       0.56463700       0.63318817
     3  Br         0.74275800       0.06463700       0.86681183
     4  Br         0.75724200       0.93536300       0.36681183
     5  S          0.25402000       0.32063700       0.82011400
     6  S          0.24598000       0.67936300       0.32011400
     7  S          0.75402000       0.17936300       0.17988600
     8  S          0.74598000       0.82063700       0.67988600
     9  O          0.25275000       0.43398170       0.78580100
    10  O          0.24725000       0.56601830       0.28580100
    11  O          0.75275000       0.06601830       0.21419900
    12  O          0.74725000       0.93398170       0.71419900
    13  O          0.09734000       0.25203000       0.80813180
    14  O          0.40266000       0.74797000       0.30813180
    15  O          0.59734000       0.24797000       0.19186820
    16  O          0.90266000       0.75203000       0.69186820
    17  O          0.41084000       0.25333000       0.80674170
    18  O          0.08916000       0.74667000       0.30674170
    19  O          0.91084000       0.24667000       0.19325830
    20  O          0.58916000       0.75333000       0.69325830
    21  C          0.25938000       0.35303000       0.90650160
    22  C          0.24062000       0.64697000       0.40650160
    23  C          0.75938000       0.14697000       0.09349840
    24  C          0.74062000       0.85303000       0.59349840
    25  C          0.17515000       0.45193000       0.92922000
    26  C          0.32485000       0.54807000       0.42922000
    27  C          0.67515000       0.04807000       0.07078000
    28  C          0.82485000       0.95193000       0.57078000
    29  H          0.12080000       0.50330000       0.89840000
    30  H          0.37920000       0.49670000       0.39840000
    31  H          0.62080000      -0.00330000       0.10160000
    32  H          0.87920000       0.00330000       0.60160000
    33  C          0.16945000       0.47693000      -0.00318000
    34  C          0.33055000       0.52307000       0.49682000
    35  C          0.66945000       0.02307000       0.00318000
    36  C          0.83055000       0.97693000       0.50318000
    37  H          0.11170000       0.54500000       0.01270000
    38  H          0.38830000       0.45500000       0.51270000
    39  H          0.61170000       0.95500000       0.98730000
    40  H          0.88830000       0.04500000       0.48730000
    41  C          0.25028000       0.39983000       0.04114150
    42  C          0.24972000       0.60017000       0.54114150
    43  C          0.75028000       0.10017000       0.95885850
    44  C          0.74972000       0.89983000       0.45885850
    45  C          0.33045000       0.30053000       0.01882000
    46  C          0.16955000       0.69947000       0.51882000
    47  C          0.83045000       0.19947000       0.98118000
    48  C          0.66955000       0.80053000       0.48118000
    49  H          0.38300000       0.24820000       0.04970000
    50  H          0.11700000       0.75180000       0.54970000
    51  H          0.88300000       0.25180000       0.95030000
    52  H          0.61700000       0.74820000       0.45030000
    53  C          0.33525000       0.27593000       0.95112000
    54  C          0.16475000       0.72407000       0.45112000
    55  C          0.83525000       0.22407000       0.04888000
    56  C          0.66475000       0.77593000       0.54888000
    57  H          0.39030000       0.20670000       0.93550000
    58  H          0.10970000       0.79330000       0.43550000
    59  H          0.89030000       0.29330000       0.06450000
    60  H          0.60970000       0.70670000       0.56450000
    61  N          0.90086000       0.51253000       0.74512000
    62  N          0.59914000       0.48747000       0.24512000
    63  N          0.40086000       0.98747000       0.25488000
    64  N          0.09914000       0.01253000       0.75488000
    65  H         -0.00040000       0.47650000       0.75260000
    66  H          0.50040000       0.52350000       0.25260000
    67  H          0.49960000       0.02350000       0.24740000
    68  H          0.00040000       0.97650000       0.74740000
    69  H          0.90000000       0.58130000       0.72520000
    70  H          0.60000000       0.41870000       0.22520000
    71  H          0.40000000       0.91870000       0.27480000
    72  H          0.10000000       0.08130000       0.77480000
    73  N          0.60535000       0.51704000       0.75242000
    74  N          0.89465000       0.48296000       0.25242000
    75  N          0.10535000       0.98296000       0.24758000
    76  N          0.39465000       0.01704000       0.74758000
    77  H          0.60420000       0.58580000       0.73250000
    78  H          0.89580000       0.41420000       0.23250000
    79  H          0.10420000       0.91420000       0.26750000
    80  H          0.39580000       0.08580000       0.76750000
    81  H          0.50760000       0.48400000       0.76480000
    82  H         -0.00760000       0.51600000       0.26480000
    83  H          0.00760000       0.01600000       0.23520000
    84  H          0.49240000       0.98400000       0.73520000
    85  N          0.75237000       0.35942000       0.79369120
    86  N          0.74763000       0.64058000       0.29369120
    87  N          0.25237000       0.14058000       0.20630880
    88  N          0.24763000       0.85942000       0.70630880
    89  H          0.85020000       0.32250000       0.80150000
    90  H          0.64980000       0.67750000       0.30150000
    91  H          0.35020000       0.17750000       0.19850000
    92  H          0.14980000       0.82250000       0.69850000
    93  H          0.65360000       0.32750000       0.80580000
    94  H          0.84640000       0.67250000       0.30580000
    95  H          0.15360000       0.17250000       0.19420000
    96  H          0.34640000       0.82750000       0.69420000
    97  C          0.75379000       0.46313000       0.76367140
    98  C          0.74621000       0.53687000       0.26367140
    99  C          0.25379000       0.03687000       0.23632860
   100  C          0.24621000       0.96313000       0.73632860
   101  C          0.23537000       0.93223000       0.05415190
   102  C          0.26463000       0.06777000       0.55415190
   103  C          0.73537000       0.56777000       0.94584810
   104  C          0.76463000       0.43223000       0.44584810
   105  H          0.20170000       0.97070000       0.09410000
   106  H          0.29830000       0.02930000       0.59410000
   107  H          0.70170000       0.52930000       0.90590000
   108  H          0.79830000       0.47070000       0.40590000
   109  C          0.23908000       0.92693000       0.93450190
   110  C          0.26092000       0.07307000       0.43450190
   111  C          0.73908000       0.57307000       0.06549810
   112  C          0.76092000       0.42693000       0.56549810
   113  H          0.20870000       0.96190000       0.89320000
   114  H          0.29130000       0.03810000       0.39320000
   115  H          0.70870000       0.53810000       0.10680000
   116  H          0.79130000       0.46190000       0.60680000
   117  C          0.32555000       0.81894000       0.93592000
   118  C          0.17445000       0.18106000       0.43592000
   119  C          0.82555000       0.68106000       0.06408000
   120  C          0.67445000       0.31894000       0.56408000
   121  C          0.36345000       0.77133000      -0.00288000
   122  C          0.13655000       0.22867000       0.49712000
   123  C          0.86345000       0.72867000       0.00288000
   124  C          0.63655000       0.27133000       0.50288000
   125  H          0.42070000       0.69770000      -0.00160000
   126  H          0.07930000       0.30230000       0.49840000
   127  H          0.92070000       0.80230000       0.00160000
   128  H          0.57930000       0.19770000       0.50160000
   129  C          0.32255000       0.82504000       0.05702000
   130  C          0.17745000       0.17496000       0.55702000
   131  C          0.82255000       0.67496000       0.94298000
   132  C          0.67745000       0.32504000       0.44298000
   133  C          0.19825000       0.98194000      -0.00658000
   134  C          0.30175000       0.01806000       0.49342000
   135  C          0.69825000       0.51806000       0.00658000
   136  C          0.80175000       0.48194000       0.50658000
   137  H          0.14280000       0.05630000       0.99210000
   138  H          0.35720000       0.94370000       0.49210000
   139  H          0.64280000       0.44370000       0.00790000
   140  H          0.85720000       0.55630000       0.50790000
   141  C          0.36835000       0.76914000       0.12292190
   142  C          0.13165000       0.23086000       0.62292190
   143  C          0.86835000       0.73086000       0.87707810
   144  C          0.63165000       0.26914000       0.37707810
   145  H          0.39750000       0.68630000       0.11590000
   146  H          0.10250000       0.31370000       0.61590000
   147  H          0.89750000       0.81370000       0.88410000
   148  H          0.60250000       0.18630000       0.38410000
   149  H          0.26950000       0.77480000       0.15330000
   150  H          0.23050000       0.22520000       0.65330000
   151  H          0.76950000       0.72520000       0.84670000
   152  H          0.73050000       0.27480000       0.34670000
   153  H          0.46780000       0.80990000       0.14240000
   154  H          0.03220000       0.19010000       0.64240000
   155  H          0.96780000       0.69010000       0.85760000
   156  H          0.53220000       0.30990000       0.35760000
   157  C          0.37436000       0.75754000       0.87192000
   158  C          0.12564000       0.24246000       0.37192000
   159  C          0.87436000       0.74246000       0.12808000
   160  C          0.62564000       0.25754000       0.62808000
   161  H          0.27670000       0.76030000       0.84080000
   162  H          0.22330000       0.23970000       0.34080000
   163  H          0.77670000       0.73970000       0.15920000
   164  H          0.72330000       0.26030000       0.65920000
   165  H          0.40360000       0.67550000       0.88140000
   166  H          0.09640000       0.32450000       0.38140000
   167  H          0.90360000       0.82450000       0.11860000
   168  H          0.59640000       0.17550000       0.61860000
   169  H          0.47430000       0.79690000       0.85190000
   170  H          0.02570000       0.20310000       0.35190000
   171  H          0.97430000       0.70310000       0.14810000
   172  H          0.52570000       0.29690000       0.64810000
