data_MERNOM
_symmetry_space_group_name_H-M    'P1'
_symmetry_Int_Tables_number       1
loop_
_symmetry_equiv_pos_site_id
_symmetry_equiv_pos_as_xyz
1 x,y,z
_cell_length_a                   7.609914
_cell_length_b                   12.0032
_cell_length_c                   21.6414
_cell_angle_alpha                90.0
_cell_angle_beta                 90.0
_cell_angle_gamma                90.0
loop_
_atom_site_label
_atom_site_type_symbol
_atom_site_fract_x
_atom_site_fract_y
_atom_site_fract_z
     1  I          0.16487400       0.84727300       0.89813913
     2  I          0.33512600       0.15272700       0.39813913
     3  I          0.66487400       0.65272700       0.10186087
     4  I          0.83512600       0.34727300       0.60186087
     5  S          0.24294110       0.92616700       0.19981400
     6  S          0.25705890       0.07383300       0.69981400
     7  S          0.74294110       0.57383300       0.80018600
     8  S          0.75705890       0.42616700       0.30018600
     9  O          0.24773000       0.81603180       0.22819110
    10  O          0.25227000       0.18396820       0.72819110
    11  O          0.74773000       0.68396820       0.77180890
    12  O          0.75227000       0.31603180       0.27180890
    13  C          0.22644000       0.90513000       0.11874150
    14  C          0.27356000       0.09487000       0.61874150
    15  C          0.72644000       0.59487000       0.88125850
    16  C          0.77356000       0.40513000       0.38125850
    17  O          0.08653000      -0.01098000       0.21807110
    18  O          0.41347000       0.01098000       0.71807110
    19  O          0.58653000       0.51098000       0.78192890
    20  O          0.91347000       0.48902000       0.28192890
    21  C          0.12625000       0.81783000       0.09702000
    22  C          0.37375000       0.18217000       0.59702000
    23  C          0.62625000       0.68217000       0.90298000
    24  C          0.87375000       0.31783000       0.40298000
    25  H          0.07020000       0.76880000       0.12530000
    26  H          0.42980000       0.23120000       0.62530000
    27  H          0.57020000       0.73120000       0.87470000
    28  H          0.92980000       0.26880000       0.37470000
    29  O          0.40423000      -0.01065810       0.20994110
    30  O          0.09577000       0.01065810       0.70994110
    31  O          0.90423000       0.51065810       0.79005890
    32  O          0.59577000       0.48934190       0.29005890
    33  C          0.10706000       0.80144000       0.03392000
    34  C          0.39294000       0.19856000       0.53392000
    35  C          0.60706000       0.69856000       0.96608000
    36  C          0.89294000       0.30144000       0.46608000
    37  H          0.03790000       0.74160000       0.01850000
    38  H          0.46210000       0.25840000       0.51850000
    39  H          0.53790000       0.75840000       0.98150000
    40  H          0.96210000       0.24160000       0.48150000
    41  C          0.19065000       0.87403000       0.99348170
    42  C          0.30935000       0.12597000       0.49348170
    43  C          0.69065000       0.62597000       0.00651830
    44  C          0.80935000       0.37403000       0.50651830
    45  C          0.29135000       0.96094000       0.01498190
    46  C          0.20865000       0.03906000       0.51498190
    47  C          0.79135000       0.53906000       0.98501810
    48  C          0.70865000       0.46094000       0.48501810
    49  H          0.34920000       0.00920000       0.98680000
    50  H          0.15080000      -0.00920000       0.48680000
    51  H          0.84920000       0.49080000       0.01320000
    52  H          0.65080000       0.50920000       0.51320000
    53  C          0.30775000       0.97743000       0.07828170
    54  C          0.19225000       0.02257000       0.57828170
    55  C          0.80775000       0.52257000       0.92171830
    56  C          0.69225000       0.47743000       0.42171830
    57  H          0.37460000       0.03830000       0.09360000
    58  H          0.12540000       0.96170000       0.59360000
    59  H          0.87460000       0.46170000       0.90640000
    60  H          0.62540000       0.53830000       0.40640000
    61  N          0.10114000       0.22543000       0.24213140
    62  N          0.39886000       0.77457000       0.74213140
    63  N          0.60114000       0.27457000       0.75786860
    64  N          0.89886000       0.72543000       0.25786860
    65  H          0.09980000       0.15390000       0.23330000
    66  H          0.40020000       0.84610000       0.73330000
    67  H          0.59980000       0.34610000       0.76670000
    68  H          0.90020000       0.65390000       0.26670000
    69  H          0.00170000       0.26250000       0.24520000
    70  H          0.49830000       0.73750000       0.74520000
    71  H          0.50170000       0.23750000       0.75480000
    72  H         -0.00170000       0.76250000       0.25480000
    73  N          0.40184000       0.22173000       0.24623140
    74  N          0.09816000       0.77827000       0.74623140
    75  N          0.90184000       0.27827000       0.75376860
    76  N          0.59816000       0.72173000       0.25376860
    77  H          0.50240000       0.25590000       0.25290000
    78  H         -0.00240000       0.74410000       0.75290000
    79  H          0.00240000       0.24410000       0.74710000
    80  H          0.49760000       0.75590000       0.24710000
    81  H          0.40070000       0.15050000       0.23650000
    82  H          0.09930000       0.84950000       0.73650000
    83  H          0.90070000       0.34950000       0.76350000
    84  H          0.59930000       0.65050000       0.26350000
    85  N          0.25534000       0.38422000       0.26548140
    86  N          0.24466000       0.61578000       0.76548140
    87  N          0.75534000       0.11578000       0.73451860
    88  N          0.74466000       0.88422000       0.23451860
    89  H          0.35620000       0.41800000       0.27210000
    90  H          0.14380000       0.58200000       0.77210000
    91  H          0.85620000       0.08200000       0.72790000
    92  H          0.64380000       0.91800000       0.22790000
    93  H          0.15630000       0.42160000       0.26860000
    94  H          0.34370000       0.57840000       0.76860000
    95  H          0.65630000       0.07840000       0.73140000
    96  H          0.84370000       0.92160000       0.23140000
    97  C          0.25265000       0.27733000       0.25083150
    98  C          0.24735000       0.72267000       0.75083150
    99  C          0.75265000       0.22267000       0.74916850
   100  C          0.74735000       0.77733000       0.24916850
   101  N          0.67225000       0.18433000       0.08227160
   102  N          0.82775000       0.81567000       0.58227160
   103  N          0.17225000       0.31567000       0.91772840
   104  N          0.32775000       0.68433000       0.41772840
   105  C          0.67055000       0.13933000       0.02299170
   106  C          0.82945000       0.86067000       0.52299170
   107  C          0.17055000       0.36067000       0.97700830
   108  C          0.32945000       0.63933000       0.47700830
   109  C          0.74606000       0.03544000       0.01072000
   110  C          0.75394000       0.96456000       0.51072000
   111  C          0.24606000       0.46456000       0.98928000
   112  C          0.25394000       0.53544000       0.48928000
   113  H          0.80300000      -0.00420000       0.04300000
   114  H          0.69700000       0.00420000       0.54300000
   115  H          0.30300000       0.50420000       0.95700000
   116  H          0.19700000       0.49580000       0.45700000
   117  C          0.73887000      -0.00976000       0.95273000
   118  C          0.76113000       0.00976000       0.45273000
   119  C          0.23887000       0.50976000       0.04727000
   120  C          0.26113000       0.49024000       0.54727000
   121  H          0.79020000       0.91920000       0.94560000
   122  H          0.70980000       0.08080000       0.44560000
   123  H          0.29020000       0.58080000       0.05440000
   124  H          0.20980000       0.41920000       0.55440000
   125  C          0.65837000       0.04525000       0.90422000
   126  C          0.84163000       0.95475000       0.40422000
   127  C          0.15837000       0.45475000       0.09578000
   128  C          0.34163000       0.54525000       0.59578000
   129  H          0.65350000       0.01300000       0.86410000
   130  H          0.84650000       0.98700000       0.36410000
   131  H          0.15350000       0.48700000       0.13590000
   132  H          0.34650000       0.51300000       0.63590000
   133  C          0.58586000       0.14765000       0.91567190
   134  C          0.91414000       0.85235000       0.41567190
   135  C          0.08586000       0.35235000       0.08432810
   136  C          0.41414000       0.64765000       0.58432810
   137  H          0.53000000       0.18680000       0.88300000
   138  H          0.97000000       0.81320000       0.38300000
   139  H          0.03000000       0.31320000       0.11700000
   140  H          0.47000000       0.68680000       0.61700000
   141  C          0.59216000       0.19514000       0.97372000
   142  C          0.90784000       0.80486000       0.47372000
   143  C          0.09216000       0.30486000       0.02628000
   144  C          0.40784000       0.69514000       0.52628000
   145  H          0.54230000       0.26680000       0.98020000
   146  H          0.95770000       0.73320000       0.48020000
   147  H          0.04230000       0.23320000       0.01980000
   148  H          0.45770000       0.76680000       0.51980000
   149  C          0.60127000       0.29274000       0.09363000
   150  C          0.89873000       0.70726000       0.59363000
   151  C          0.10127000       0.20726000       0.90637000
   152  C          0.39873000       0.79274000       0.40637000
   153  H          0.66270000       0.34750000       0.06800000
   154  H          0.83730000       0.65250000       0.56800000
   155  H          0.16270000       0.15250000       0.93200000
   156  H          0.33730000       0.84750000       0.43200000
   157  H          0.61640000       0.31170000       0.13740000
   158  H          0.88360000       0.68830000       0.63740000
   159  H          0.11640000       0.18830000       0.86260000
   160  H          0.38360000       0.81170000       0.36260000
   161  H          0.47580000       0.29300000       0.08330000
   162  H          0.02420000       0.70700000       0.58330000
   163  H          0.97580000       0.20700000       0.91670000
   164  H          0.52420000       0.79300000       0.41670000
   165  C          0.76296000       0.12604000       0.13092000
   166  C          0.73704000       0.87396000       0.63092000
   167  C          0.26296000       0.37396000       0.86908000
   168  C          0.23704000       0.62604000       0.36908000
   169  H          0.71440000       0.05070000       0.13510000
   170  H          0.78560000       0.94930000       0.63510000
   171  H          0.21440000       0.44930000       0.86490000
   172  H          0.28560000       0.55070000       0.36490000
   173  H          0.74780000       0.16640000       0.16990000
   174  H          0.75220000       0.83360000       0.66990000
   175  H          0.24780000       0.33360000       0.83010000
   176  H          0.25220000       0.66640000       0.33010000
   177  H          0.88830000       0.12120000       0.12090000
   178  H          0.61170000       0.87880000       0.62090000
   179  H          0.38830000       0.37880000       0.87910000
   180  H          0.11170000       0.62120000       0.37910000
