data_MERPEE
_symmetry_space_group_name_H-M    'P1'
_symmetry_Int_Tables_number       1
loop_
_symmetry_equiv_pos_site_id
_symmetry_equiv_pos_as_xyz
1 x,y,z
_cell_length_a                   7.48929
_cell_length_b                   11.556014
_cell_length_c                   21.1753
_cell_angle_alpha                90.0
_cell_angle_beta                 90.0
_cell_angle_gamma                90.0
loop_
_atom_site_label
_atom_site_type_symbol
_atom_site_fract_x
_atom_site_fract_y
_atom_site_fract_z
     1  Cl         0.14539110       0.11196700       0.11309300
     2  Cl         0.35460890       0.88803300       0.61309300
     3  Cl         0.64539110       0.38803300       0.88690700
     4  Cl         0.85460890       0.61196700       0.38690700
     5  S          0.23782700       0.08659400       0.82034200
     6  S          0.26217300       0.91340600       0.32034200
     7  S          0.73782700       0.41340600       0.17965800
     8  S          0.76217300       0.58659400       0.67965800
     9  O          0.24922000       0.20391110       0.79559700
    10  O          0.25078000       0.79608890       0.29559700
    11  O          0.74922000       0.29608890       0.20440300
    12  O          0.75078000       0.70391110       0.70440300
    13  C          0.20722000       0.09814160       0.90285900
    14  C          0.29278000       0.90185840       0.40285900
    15  C          0.70722000       0.40185840       0.09714100
    16  C          0.79278000       0.59814160       0.59714100
    17  O          0.40185180       0.02129130       0.81081700
    18  O          0.09814820       0.97870870       0.31081700
    19  O          0.90185180       0.47870870       0.18918300
    20  O          0.59814820       0.52129130       0.68918300
    21  C          0.26343000       0.19565170       0.93548110
    22  C          0.23657000       0.80434830       0.43548110
    23  C          0.76343000       0.30434830       0.06451890
    24  C          0.73657000       0.69565170       0.56451890
    25  H          0.31500000       0.25870000       0.91330000
    26  H          0.18500000       0.74130000       0.41330000
    27  H          0.81500000       0.24130000       0.08670000
    28  H          0.68500000       0.75870000       0.58670000
    29  O          0.08239180       0.02327130       0.79686700
    30  O          0.41760820       0.97672870       0.29686700
    31  O          0.58239180       0.47672870       0.20313300
    32  O          0.91760820       0.52327130       0.70313300
    33  C          0.24424000       0.20095180       0.00015110
    34  C          0.25576000       0.79904820       0.50015110
    35  C          0.74424000       0.29904820      -0.00015110
    36  C          0.75576000       0.70095180       0.49984890
    37  H          0.28240000       0.26740000       0.02290000
    38  H          0.21760000       0.73260000       0.52290000
    39  H          0.78240000       0.23260000       0.97710000
    40  H          0.71760000       0.76740000       0.47710000
    41  C          0.16843000       0.10792000       0.03151100
    42  C          0.33157000       0.89208000       0.53151100
    43  C          0.66843000       0.39208000       0.96848900
    44  C          0.83157000       0.60792000       0.46848900
    45  C          0.11043000       0.01162000      -0.00007890
    46  C          0.38957000      -0.01162000       0.49992110
    47  C          0.61043000       0.48838000       0.00007890
    48  C          0.88957000       0.51162000       0.50007890
    49  H          0.05770000       0.94890000       0.02220000
    50  H          0.44230000       0.05110000       0.52220000
    51  H          0.55770000       0.55110000       0.97780000
    52  H          0.94230000       0.44890000       0.47780000
    53  C          0.13013000       0.00706190       0.93484100
    54  C          0.36987000      -0.00706190       0.43484100
    55  C          0.63013000       0.49293810       0.06515900
    56  C          0.86987000       0.50706190       0.56515900
    57  H          0.09030000       0.94090000       0.91220000
    58  H          0.40970000       0.05910000       0.41220000
    59  H          0.59030000       0.55910000       0.08780000
    60  H          0.90970000       0.44090000       0.58780000
    61  N          0.89752000       0.28645170       0.74593900
    62  N          0.60248000       0.71354830       0.24593900
    63  N          0.39752000       0.21354830       0.25406100
    64  N          0.10248000       0.78645170       0.75406100
    65  H          0.89990000       0.35390000       0.72670000
    66  H          0.60010000       0.64610000       0.22670000
    67  H          0.39990000       0.14610000       0.27330000
    68  H          0.10010000       0.85390000       0.77330000
    69  H         -0.00200000       0.25170000       0.75610000
    70  H          0.50200000       0.74830000       0.25610000
    71  H          0.49800000       0.24830000       0.24390000
    72  H          0.00200000       0.75170000       0.74390000
    73  N          0.73783000       0.13482140       0.78748900
    74  N          0.76217000       0.86517860       0.28748900
    75  N          0.23783000       0.36517860       0.21251100
    76  N          0.26217000       0.63482140       0.71251100
    77  H          0.83770000       0.09890000       0.79720000
    78  H          0.66230000       0.90110000       0.29720000
    79  H          0.33770000       0.40110000       0.20280000
    80  H          0.16230000       0.59890000       0.70280000
    81  H          0.63430000       0.10270000       0.79630000
    82  H          0.86570000       0.89730000       0.29630000
    83  H          0.13430000       0.39730000       0.20370000
    84  H          0.36570000       0.60270000       0.70370000
    85  N          0.59182000       0.28956170       0.74416800
    86  N          0.90818000       0.71043830       0.24416800
    87  N          0.09182000       0.21043830       0.25583200
    88  N          0.40818000       0.78956170       0.75583200
    89  H          0.59410000       0.35710000       0.72490000
    90  H          0.90590000       0.64290000       0.22490000
    91  H          0.09410000       0.14290000       0.27510000
    92  H          0.40590000       0.85710000       0.77510000
    93  H          0.48890000       0.25670000       0.75320000
    94  H          0.01110000       0.74330000       0.25320000
    95  H         -0.01110000       0.24330000       0.24680000
    96  H          0.51110000       0.75670000       0.74680000
    97  C          0.74333000       0.23733160       0.75947900
    98  C          0.75667000       0.76266840       0.25947900
    99  C          0.24333000       0.26266840       0.24052100
   100  C          0.25667000       0.73733160       0.74052100
   101  C          0.17233000       0.56842000       0.93054120
   102  C          0.32767000       0.43158000       0.43054120
   103  C          0.67233000       0.93158000       0.06945880
   104  C          0.82767000       0.06842000       0.56945880
   105  C          0.25554000       0.67418190       0.93683110
   106  C          0.24446000       0.32581810       0.43683110
   107  C          0.75554000       0.82581810       0.06316890
   108  C          0.74446000       0.17418190       0.56316890
   109  H          0.29270000       0.71460000       0.90010000
   110  H          0.20730000       0.28540000       0.40010000
   111  H          0.79270000       0.78540000       0.09990000
   112  H          0.70730000       0.21460000       0.59990000
   113  C          0.28603000       0.72272000      -0.00430880
   114  C          0.21397000       0.27728000       0.49569120
   115  C          0.78603000       0.77728000       0.00430880
   116  C          0.71397000       0.22272000       0.50430880
   117  H          0.34580000       0.79500000      -0.00140000
   118  H          0.15420000       0.20500000       0.49860000
   119  H          0.84580000       0.70500000       0.00140000
   120  H          0.65420000       0.29500000       0.50140000
   121  C          0.23063000       0.66752000       0.05049110
   122  C          0.26937000       0.33248000       0.55049110
   123  C          0.73063000       0.83248000       0.94950890
   124  C          0.76937000       0.16752000       0.44950890
   125  C          0.14603000       0.56202000       0.04410120
   126  C          0.35397000       0.43798000       0.54410120
   127  C          0.64603000       0.93798000       0.95589880
   128  C          0.85397000       0.06202000       0.45589880
   129  H          0.10670000       0.52210000       0.08080000
   130  H          0.39330000       0.47790000       0.58080000
   131  H          0.60670000       0.97790000       0.91920000
   132  H          0.89330000       0.02210000       0.41920000
   133  C          0.11773000       0.51362000       0.98597130
   134  C          0.38227000       0.48638000       0.48597130
   135  C          0.61773000       0.98638000       0.01402870
   136  C          0.88227000       0.01362000       0.51402870
   137  H          0.05940000       0.44080000       0.98330000
   138  H          0.44060000       0.55920000       0.48330000
   139  H          0.55940000       0.05920000       0.01670000
   140  H          0.94060000       0.94080000       0.51670000
   141  C          0.14095000       0.51413000       0.86677140
   142  C          0.35905000       0.48587000       0.36677140
   143  C          0.64095000       0.98587000       0.13322860
   144  C          0.85905000       0.01413000       0.63322860
   145  H          0.08830000       0.43720000       0.87230000
   146  H          0.41170000       0.56280000       0.37230000
   147  H          0.58830000       0.06280000       0.12770000
   148  H          0.91170000       0.93720000       0.62770000
   149  H          0.25490000       0.50720000       0.84430000
   150  H          0.24510000       0.49280000       0.34430000
   151  H          0.75490000      -0.00720000       0.15570000
   152  H          0.74510000       0.00720000       0.65570000
   153  H          0.05930000       0.56280000       0.84220000
   154  H          0.44070000       0.43720000       0.34220000
   155  H          0.55930000       0.93720000       0.15780000
   156  H          0.94070000       0.06280000       0.65780000
   157  C          0.26054000       0.72193000       0.11429130
   158  C          0.23946000       0.27807000       0.61429130
   159  C          0.76054000       0.77807000       0.88570870
   160  C          0.73946000       0.22193000       0.38570870
   161  H          0.17930000       0.78770000       0.11960000
   162  H          0.32070000       0.21230000       0.61960000
   163  H          0.67930000       0.71230000       0.88040000
   164  H          0.82070000       0.28770000       0.38040000
   165  H          0.38430000       0.74880000       0.11740000
   166  H          0.11570000       0.25120000       0.61740000
   167  H          0.88430000       0.75120000       0.88260000
   168  H          0.61570000       0.24880000       0.38260000
   169  H          0.23740000       0.66460000       0.14740000
   170  H          0.26260000       0.33540000       0.64740000
   171  H          0.73740000       0.83540000       0.85260000
   172  H          0.76260000       0.16460000       0.35260000
