data_MESNIL
_symmetry_space_group_name_H-M    'P1'
_symmetry_Int_Tables_number       1
loop_
_symmetry_equiv_pos_site_id
_symmetry_equiv_pos_as_xyz
1 x,y,z
_cell_length_a                   5.65378
_cell_length_b                   6.28439
_cell_length_c                   6.82399
_cell_angle_alpha                100.0325
_cell_angle_beta                 94.2966
_cell_angle_gamma                94.9526
loop_
_atom_site_label
_atom_site_type_symbol
_atom_site_fract_x
_atom_site_fract_y
_atom_site_fract_z
     1  I          0.92479200       0.14857200       0.88550319
     2  I          0.07520800       0.85142800       0.11449681
     3  S          0.76615100       0.48191900       0.63364800
     4  S          0.23384900       0.51808100       0.36635200
     5  C          0.63214000       0.29934000       0.40953000
     6  C          0.36786000       0.70066000       0.59047000
     7  H          0.75854000       0.22494000       0.34083000
     8  H          0.24146000       0.77506000       0.65917000
     9  H          0.51984000       0.18714000       0.44763000
    10  H          0.48016000       0.81286000       0.55237000
    11  C          0.49994000       0.41724000       0.26633000
    12  C          0.50006000       0.58276000       0.73367000
    13  H          0.45444000       0.31694000       0.13763000
    14  H          0.54556000       0.68306000       0.86237000
    15  H          0.60674000       0.54054000       0.24023000
    16  H          0.39326000       0.45946000       0.75977000
