data_MESPIN
_symmetry_space_group_name_H-M    'P1'
_symmetry_Int_Tables_number       1
loop_
_symmetry_equiv_pos_site_id
_symmetry_equiv_pos_as_xyz
1 x,y,z
_cell_length_a                   6.72672
_cell_length_b                   12.30744
_cell_length_c                   10.21863
_cell_angle_alpha                90.0
_cell_angle_beta                 90.0
_cell_angle_gamma                90.0
loop_
_atom_site_label
_atom_site_type_symbol
_atom_site_fract_x
_atom_site_fract_y
_atom_site_fract_z
     1  Br         0.90765700       0.25000000       0.08854318
     2  Br         0.40765700       0.25000000       0.41145682
     3  Br         0.09234300       0.75000000       0.91145682
     4  Br         0.59234300       0.75000000       0.58854318
     5  S          0.40840500       0.51618300       0.84116300
     6  S          0.90840500       0.98381700       0.65883700
     7  S          0.59159500       0.01618300       0.15883700
     8  S          0.09159500       0.48381700       0.34116300
     9  S          0.59159500       0.48381700       0.15883700
    10  S          0.09159500       0.01618300       0.34116300
    11  S          0.40840500       0.98381700       0.84116300
    12  S          0.90840500       0.51618300       0.65883700
    13  O          0.53322150       0.41978800       0.79189900
    14  O          0.03322150       0.08021200       0.70810100
    15  O          0.46677850       0.91978800       0.20810100
    16  O          0.96677850       0.58021200       0.29189900
    17  O          0.46677850       0.58021200       0.20810100
    18  O          0.96677850       0.91978800       0.29189900
    19  O          0.53322150       0.08021200       0.79189900
    20  O          0.03322150       0.41978800       0.70810100
    21  C          0.27918190       0.46374100       0.98280120
    22  C          0.77918190       0.03625900       0.51719880
    23  C          0.72081810       0.96374100       0.01719880
    24  C          0.22081810       0.53625900       0.48280120
    25  C          0.72081810       0.53625900       0.01719880
    26  C          0.22081810       0.96374100       0.48280120
    27  C          0.27918190       0.03625900       0.98280120
    28  C          0.77918190       0.46374100       0.51719880
    29  H          0.21989190       0.52514100       0.03173120
    30  H          0.71989190       0.97485900       0.46826880
    31  H          0.78010810       0.02514100       0.96826880
    32  H          0.28010810       0.47485900       0.53173120
    33  H          0.78010810       0.47485900       0.96826880
    34  H          0.28010810       0.02514100       0.53173120
    35  H          0.21989190       0.97485900       0.03173120
    36  H          0.71989190       0.52514100       0.46826880
    37  H          0.16941190       0.41612100       0.95322120
    38  H          0.66941190       0.08387900       0.54677880
    39  H          0.83058810       0.91612100       0.04677880
    40  H          0.33058810       0.58387900       0.45322120
    41  H          0.83058810       0.58387900       0.04677880
    42  H          0.33058810       0.91612100       0.45322120
    43  H          0.16941190       0.08387900       0.95322120
    44  H          0.66941190       0.41612100       0.54677880
    45  C          0.41382190       0.39987110       0.07394130
    46  C          0.91382190       0.10012890       0.42605870
    47  C          0.58617810       0.89987110       0.92605870
    48  C          0.08617810       0.60012890       0.57394130
    49  C          0.58617810       0.60012890       0.92605870
    50  C          0.08617810       0.89987110       0.57394130
    51  C          0.41382190       0.10012890       0.07394130
    52  C          0.91382190       0.39987110       0.42605870
    53  H          0.48624190       0.34440110       0.02246130
    54  H         -0.01375810       0.15559890       0.47753870
    55  H          0.51375810       0.84440110       0.97753870
    56  H          0.01375810       0.65559890       0.52246130
    57  H          0.51375810       0.65559890       0.97753870
    58  H          0.01375810       0.84440110       0.52246130
    59  H          0.48624190       0.15559890       0.02246130
    60  H         -0.01375810       0.34440110       0.47753870
    61  H          0.33086190       0.36135110       0.13915130
    62  H          0.83086190       0.13864890       0.36084870
    63  H          0.66913810       0.86135110       0.86084870
    64  H          0.16913810       0.63864890       0.63915130
    65  H          0.66913810       0.63864890       0.86084870
    66  H          0.16913810       0.86135110       0.63915130
    67  H          0.33086190       0.13864890       0.13915130
    68  H          0.83086190       0.36135110       0.36084870
    69  O          0.36772000       0.25000000       0.71400140
    70  O          0.86772000       0.25000000       0.78599860
    71  O          0.63228000       0.75000000       0.28599860
    72  O          0.13228000       0.75000000       0.21400140
    73  H          0.42440000       0.31181600       0.74130000
    74  H          0.92440000       0.18818400       0.75870000
    75  H          0.57560000       0.81181600       0.25870000
    76  H          0.07560000       0.68818400       0.24130000
    77  H          0.57560000       0.68818400       0.25870000
    78  H          0.07560000       0.81181600       0.24130000
    79  H          0.42440000       0.18818400       0.74130000
    80  H          0.92440000       0.31181600       0.75870000
    81  H          0.36250000       0.25000000       0.62821700
    82  H          0.86250000       0.25000000       0.87178300
    83  H          0.63750000       0.75000000       0.37178300
    84  H          0.13750000       0.75000000       0.12821700
