data_MEWKOR
_symmetry_space_group_name_H-M    'P1'
_symmetry_Int_Tables_number       1
loop_
_symmetry_equiv_pos_site_id
_symmetry_equiv_pos_as_xyz
1 x,y,z
_cell_length_a                   20.9972
_cell_length_b                   4.47853
_cell_length_c                   23.2423
_cell_angle_alpha                90.0
_cell_angle_beta                 113.53214
_cell_angle_gamma                90.0
loop_
_atom_site_label
_atom_site_type_symbol
_atom_site_fract_x
_atom_site_fract_y
_atom_site_fract_z
     1  I          0.41548200       0.26813600       0.34547200
     2  I          0.08451800       0.26813600       0.65452800
     3  I          0.91548200       0.76813600       0.84547200
     4  I          0.58451800       0.76813600       0.15452800
     5  I          0.58451800       0.73186400       0.65452800
     6  I          0.91548200       0.73186400       0.34547200
     7  I          0.08451800       0.23186400       0.15452800
     8  I          0.41548200       0.23186400       0.84547200
     9  F          0.54774140       0.83813000       0.41246120
    10  F          0.95225860       0.83813000       0.58753880
    11  F          0.04774140       0.33813000       0.91246120
    12  F          0.45225860       0.33813000       0.08753880
    13  F          0.45225860       0.16187000       0.58753880
    14  F          0.04774140       0.16187000       0.41246120
    15  F          0.95225860       0.66187000       0.08753880
    16  F          0.54774140       0.66187000       0.91246120
    17  F          0.61004140       0.63023000       0.52822130
    18  F          0.88995860       0.63023000       0.47177870
    19  F          0.11004140       0.13023000       0.02822130
    20  F          0.38995860       0.13023000       0.97177870
    21  F          0.38995860       0.36977000       0.47177870
    22  F          0.11004140       0.36977000       0.52822130
    23  F          0.88995860       0.86977000       0.97177870
    24  F          0.61004140       0.86977000       0.02822130
    25  C          0.46652000       0.10779000       0.43808180
    26  C          0.03348000       0.10779000       0.56191820
    27  C          0.96652000       0.60779000       0.93808180
    28  C          0.53348000       0.60779000       0.06191820
    29  C          0.53348000       0.89221000       0.56191820
    30  C          0.96652000       0.89221000       0.43808180
    31  C          0.03348000       0.39221000       0.06191820
    32  C          0.46652000       0.39221000       0.93808180
    33  C          0.52272000       0.92081000       0.45520190
    34  C          0.97728000       0.92081000       0.54479810
    35  C          0.02272000       0.42081000       0.95520190
    36  C          0.47728000       0.42081000       0.04479810
    37  C          0.47728000       0.07919000       0.54479810
    38  C          0.02272000       0.07919000       0.45520190
    39  C          0.97728000       0.57919000       0.04479810
    40  C          0.52272000       0.57919000       0.95520190
    41  C          0.55562000       0.81661000       0.51552000
    42  C          0.94438000       0.81661000       0.48448000
    43  C          0.05562000       0.31661000       0.01552000
    44  C          0.44438000       0.31661000       0.98448000
    45  C          0.44438000       0.18339000       0.48448000
    46  C          0.05562000       0.18339000       0.51552000
    47  C          0.94438000       0.68339000       0.98448000
    48  C          0.55562000       0.68339000       0.01552000
    49  N          0.35452000       0.51698000       0.22681160
    50  N          0.14548000       0.51698000       0.77318840
    51  N          0.85452000       0.01698000       0.72681160
    52  N          0.64548000       0.01698000       0.27318840
    53  N          0.64548000       0.48302000       0.77318840
    54  N          0.85452000       0.48302000       0.22681160
    55  N          0.14548000      -0.01698000       0.27318840
    56  N          0.35452000      -0.01698000       0.72681160
    57  C          0.28772000       0.57911100       0.19682000
    58  C          0.21228000       0.57911100       0.80318000
    59  C          0.78772000       0.07911100       0.69682000
    60  C          0.71228000       0.07911100       0.30318000
    61  C          0.71228000       0.42088900       0.80318000
    62  C          0.78772000       0.42088900       0.19682000
    63  C          0.21228000       0.92088900       0.30318000
    64  C          0.28772000       0.92088900       0.69682000
    65  H          0.25680000       0.50180000       0.21260000
    66  H          0.24320000       0.50180000       0.78740000
    67  H          0.75680000       0.00180000       0.71260000
    68  H          0.74320000       0.00180000       0.28740000
    69  H          0.74320000       0.49820000       0.78740000
    70  H          0.75680000       0.49820000       0.21260000
    71  H          0.24320000      -0.00180000       0.28740000
    72  H          0.25680000      -0.00180000       0.71260000
    73  C          0.26142000       0.75149000       0.14352000
    74  C          0.23858000       0.75149000       0.85648000
    75  C          0.76142000       0.25149000       0.64352000
    76  C          0.73858000       0.25149000       0.35648000
    77  C          0.73858000       0.24851000       0.85648000
    78  C          0.76142000       0.24851000       0.14352000
    79  C          0.23858000       0.74851000       0.35648000
    80  C          0.26142000       0.74851000       0.64352000
    81  H          0.21390000       0.78790000       0.12450000
    82  H          0.28610000       0.78790000       0.87550000
    83  H          0.71390000       0.28790000       0.62450000
    84  H          0.78610000       0.28790000       0.37550000
    85  H          0.78610000       0.21210000       0.87550000
    86  H          0.71390000       0.21210000       0.12450000
    87  H          0.28610000       0.71210000       0.37550000
    88  H          0.21390000       0.71210000       0.62450000
    89  C          0.30512000       0.87108000       0.11813170
    90  C          0.19488000       0.87108000       0.88186830
    91  C          0.80512000       0.37108000       0.61813170
    92  C          0.69488000       0.37108000       0.38186830
    93  C          0.69488000       0.12892000       0.88186830
    94  C          0.80512000       0.12892000       0.11813170
    95  C          0.19488000       0.62892000       0.38186830
    96  C          0.30512000       0.62892000       0.61813170
    97  C          0.37462000       0.80341000       0.14942000
    98  C          0.12538000       0.80341000       0.85058000
    99  C          0.87462000       0.30341000       0.64942000
   100  C          0.62538000       0.30341000       0.35058000
   101  C          0.62538000       0.19659000       0.85058000
   102  C          0.87462000       0.19659000       0.14942000
   103  C          0.12538000       0.69659000       0.35058000
   104  C          0.37462000       0.69659000       0.64942000
   105  H          0.40670000       0.87640000       0.13470000
   106  H          0.09330000       0.87640000       0.86530000
   107  H          0.90670000       0.37640000       0.63470000
   108  H          0.59330000       0.37640000       0.36530000
   109  H          0.59330000       0.12360000       0.86530000
   110  H          0.90670000       0.12360000       0.13470000
   111  H          0.09330000       0.62360000       0.36530000
   112  H          0.40670000       0.62360000       0.63470000
   113  C          0.39632000       0.62931200       0.20222000
   114  C          0.10368000       0.62931200       0.79778000
   115  C          0.89632000       0.12931200       0.70222000
   116  C          0.60368000       0.12931200       0.29778000
   117  C          0.60368000       0.37068800       0.79778000
   118  C          0.89632000       0.37068800       0.20222000
   119  C          0.10368000       0.87068800       0.29778000
   120  C          0.39632000       0.87068800       0.70222000
   121  H          0.44350000       0.58710000       0.22200000
   122  H          0.05650000       0.58710000       0.77800000
   123  H          0.94350000       0.08710000       0.72200000
   124  H          0.55650000       0.08710000       0.27800000
   125  H          0.55650000       0.41290000       0.77800000
   126  H          0.94350000       0.41290000       0.22200000
   127  H          0.05650000       0.91290000       0.27800000
   128  H          0.44350000       0.91290000       0.72200000
   129  C          0.27862000       0.05508000       0.05967160
   130  C          0.22138000       0.05508000       0.94032840
   131  C          0.77862000       0.55508000       0.55967160
   132  C          0.72138000       0.55508000       0.44032840
   133  C          0.72138000       0.94492000       0.94032840
   134  C          0.77862000       0.94492000       0.05967160
   135  C          0.22138000       0.44492000       0.44032840
   136  C          0.27862000       0.44492000       0.55967160
   137  H          0.31610000       0.17910000       0.05870000
   138  H          0.18390000       0.17910000       0.94130000
   139  H          0.81610000       0.67910000       0.55870000
   140  H          0.68390000       0.67910000       0.44130000
   141  H          0.68390000       0.82090000       0.94130000
   142  H          0.81610000       0.82090000       0.05870000
   143  H          0.18390000       0.32090000       0.44130000
   144  H          0.31610000       0.32090000       0.55870000
   145  H          0.24220000       0.18610000       0.06050000
   146  H          0.25780000       0.18610000       0.93950000
   147  H          0.74220000       0.68610000       0.56050000
   148  H          0.75780000       0.68610000       0.43950000
   149  H          0.75780000       0.81390000       0.93950000
   150  H          0.74220000       0.81390000       0.06050000
   151  H          0.25780000       0.31390000       0.43950000
   152  H          0.24220000       0.31390000       0.56050000
   153  C          0.25000000       0.86561200       0.00000000
   154  C          0.75000000       0.36561200       0.50000000
   155  C          0.75000000       0.13438800      -0.00000000
   156  C          0.25000000       0.63438800       0.50000000
   157  H          0.21330000       0.73810000       0.00140000
   158  H          0.28670000       0.73810000      -0.00140000
   159  H          0.71330000       0.23810000       0.50140000
   160  H          0.78670000       0.23810000       0.49860000
   161  H          0.78670000       0.26190000      -0.00140000
   162  H          0.71330000       0.26190000       0.00140000
   163  H          0.28670000       0.76190000       0.49860000
   164  H          0.21330000       0.76190000       0.50140000
