data_MEXBOI
_symmetry_space_group_name_H-M    'P1'
_symmetry_Int_Tables_number       1
loop_
_symmetry_equiv_pos_site_id
_symmetry_equiv_pos_as_xyz
1 x,y,z
_cell_length_a                   5.484911
_cell_length_b                   14.3022
_cell_length_c                   18.3543
_cell_angle_alpha                111.402
_cell_angle_beta                 90.352
_cell_angle_gamma                94.032
loop_
_atom_site_label
_atom_site_type_symbol
_atom_site_fract_x
_atom_site_fract_y
_atom_site_fract_z
     1  I          0.11335600       0.46492200       0.32421200
     2  I          0.88664400       0.53507800       0.67578800
     3  C          0.91492000       0.54044000       0.26313000
     4  C          0.08508000       0.45956000       0.73687000
     5  F          0.80423000       0.61623000       0.31362000
     6  F          0.19577000       0.38377000       0.68638000
     7  F          0.73964000       0.47513000       0.21652000
     8  F          0.26036000       0.52487000       0.78348000
     9  C          0.07897000       0.58093000       0.21172000
    10  C          0.92103000       0.41907000       0.78828000
    11  F          0.24036000       0.65123000       0.25989190
    12  F          0.75964000       0.34877000       0.74010810
    13  F          0.19966000       0.50682000       0.16550180
    14  F          0.80034000       0.49318000       0.83449820
    15  C          0.94342000       0.62893000       0.16132000
    16  C          0.05658000       0.37107000       0.83868000
    17  F          0.80862000       0.69663000       0.20482000
    18  F          0.19138000       0.30337000       0.79518000
    19  F          0.78984000       0.55603000       0.11152000
    20  F          0.21016000       0.44397000       0.88848000
    21  C          0.10928000       0.67203000       0.11142000
    22  C          0.89072000       0.32797000       0.88858000
    23  F          0.25171100       0.74704000       0.15983000
    24  F          0.74828900       0.25296000       0.84017000
    25  F          0.24647000       0.60314000       0.06973000
    26  F          0.75353000       0.39686000       0.93027000
    27  C         -0.02688000       0.71283000       0.05612000
    28  C          0.02688000       0.28717000       0.94388000
    29  F          0.83649000       0.78214000       0.09852000
    30  F          0.16351000       0.21786000       0.90148000
    31  F          0.82643000       0.63883000       0.00882000
    32  F          0.17357000       0.36117000       0.99118000
    33  C          0.14008000       0.75553000       0.00622000
    34  C          0.85992000       0.24447000      -0.00622000
    35  F          0.29027000       0.82983000       0.05252000
    36  F          0.70973000       0.17017000       0.94748000
    37  F          0.27416000       0.68213000       0.96268000
    38  F          0.72584000       0.31787000       0.03732000
    39  C          0.00067000       0.79473000       0.94978000
    40  C         -0.00067000       0.20527000       0.05022000
    41  F          0.86774000       0.86752000      -0.00739170
    42  F          0.13226000       0.13248000       0.00739170
    43  F          0.85024000       0.71972000       0.90270830
    44  F          0.14976000       0.28028000       0.09729170
    45  C          0.16239000       0.83564000       0.89837000
    46  C          0.83761000       0.16436000       0.10163000
    47  F          0.31556000       0.91023000       0.94358000
    48  F          0.68444000       0.08977000       0.05642000
    49  F          0.29887000       0.76223000       0.85448000
    50  F          0.70113000       0.23777000       0.14552000
    51  I          0.95202400       0.88682200       0.82292800
    52  I          0.04797600       0.11317800       0.17707200
    53  C          0.48859000       0.32024000       0.51193000
    54  C          0.51141000       0.67976000       0.48807000
    55  H          0.46450000       0.32840000       0.56390000
    56  H          0.53550000       0.67160000       0.43610000
    57  C          0.34529000       0.36564000       0.47473000
    58  C          0.65471000       0.63436000       0.52527000
    59  H          0.22360000       0.40410000       0.50310000
    60  H          0.77640000       0.59590000       0.49690000
    61  N          0.37008000       0.35783000       0.40133000
    62  N          0.62992000       0.64217000       0.59867000
    63  C          0.54251000       0.30215000       0.36213000
    64  C          0.45749000       0.69785000       0.63787000
    65  H          0.56070000       0.29520000       0.31010000
    66  H          0.43930000       0.70480000       0.68990000
    67  C          0.69719000       0.25364000       0.39323000
    68  C          0.30281000       0.74636000       0.60677000
    69  H          0.81750000       0.21600000       0.36340000
    70  H          0.18250000       0.78400000       0.63660000
    71  C          0.66827000       0.26233000       0.47062000
    72  C          0.33173000       0.73767000       0.52938000
    73  C          0.82298000       0.21364000       0.50683000
    74  C          0.17702000       0.78636000       0.49317000
    75  C          0.95439000       0.17614000       0.53783000
    76  C          0.04561000       0.82386000       0.46217000
    77  C          0.10669000       0.13434000       0.57533000
    78  C          0.89331000       0.86566000       0.42467000
    79  C          0.24289000       0.09824000       0.60763000
    80  C          0.75711000       0.90176000       0.39237000
    81  C          0.39648000       0.05453000       0.64812000
    82  C          0.60352000       0.94547000       0.35188000
    83  C          0.35309000       0.06484000       0.72503000
    84  C          0.64691000       0.93516000       0.27497000
    85  H          0.22380000       0.09980000       0.75140000
    86  H          0.77620000       0.90020000       0.24860000
    87  C          0.50519000       0.02204000       0.76063000
    88  C          0.49481000       0.97796000       0.23937000
    89  H          0.47540000       0.02910000       0.81210000
    90  H          0.52460000       0.97090000       0.18790000
    91  N          0.69337000       0.97087000       0.72682000
    92  N          0.30663000       0.02913000       0.27318000
    93  C          0.72899000       0.96016000       0.65273000
    94  C          0.27101000       0.03984000       0.34727000
    95  H          0.85670000       0.92310000       0.62740000
    96  H          0.14330000       0.07690000       0.37260000
    97  C          0.58829000       0.00064000       0.61133000
    98  C          0.41171000      -0.00064000       0.38867000
    99  H          0.62140000      -0.00820000       0.55970000
   100  H          0.37860000       0.00820000       0.44030000
