data_MIKREF
_symmetry_space_group_name_H-M    'P1'
_symmetry_Int_Tables_number       1
loop_
_symmetry_equiv_pos_site_id
_symmetry_equiv_pos_as_xyz
1 x,y,z
_cell_length_a                   18.66325
_cell_length_b                   10.49042
_cell_length_c                   10.75803
_cell_angle_alpha                90.0
_cell_angle_beta                 99.214912
_cell_angle_gamma                90.0
loop_
_atom_site_label
_atom_site_type_symbol
_atom_site_fract_x
_atom_site_fract_y
_atom_site_fract_z
     1  B          0.73461700       0.78241120       0.70036110
     2  B          0.26538300       0.78241120       0.79963890
     3  B          0.23461700       0.28241120       0.70036110
     4  B          0.76538300       0.28241120       0.79963890
     5  B          0.26538300       0.21758880       0.29963890
     6  B          0.73461700       0.21758880       0.20036110
     7  B          0.76538300       0.71758880       0.29963890
     8  B          0.23461700       0.71758880       0.20036110
     9  B          0.75771700       0.65133120       0.60733120
    10  B          0.24228300       0.65133120       0.89266880
    11  B          0.25771700       0.15133120       0.60733120
    12  B          0.74228300       0.15133120       0.89266880
    13  B          0.24228300       0.34866880       0.39266880
    14  B          0.75771700       0.34866880       0.10733120
    15  B          0.74228300       0.84866880       0.39266880
    16  B          0.25771700       0.84866880       0.10733120
    17  B          0.67815700       0.64364120       0.67530120
    18  B          0.32184300       0.64364120       0.82469880
    19  B          0.17815700       0.14364120       0.67530120
    20  B          0.82184300       0.14364120       0.82469880
    21  B          0.32184300       0.35635880       0.32469880
    22  B          0.67815700       0.35635880       0.17530120
    23  B          0.82184300       0.85635880       0.32469880
    24  B          0.17815700       0.85635880       0.17530120
    25  B          0.63860700       0.79389120       0.70233120
    26  B          0.36139300       0.79389120       0.79766880
    27  B          0.13860700       0.29389120       0.70233120
    28  B          0.86139300       0.29389120       0.79766880
    29  B          0.36139300       0.20610880       0.29766880
    30  B          0.63860700       0.20610880       0.20233120
    31  B          0.86139300       0.70610880       0.29766880
    32  B          0.13860700       0.70610880       0.20233120
    33  B          0.76218700       0.81424110       0.55484120
    34  B          0.23781300       0.81424110       0.94515880
    35  B          0.26218700       0.31424110       0.55484120
    36  B          0.73781300       0.31424110       0.94515880
    37  B          0.23781300       0.18575890       0.44515880
    38  B          0.76218700       0.18575890       0.05484120
    39  B          0.73781300       0.68575890       0.44515880
    40  B          0.26218700       0.68575890       0.05484120
    41  B          0.67496700       0.59060120       0.51933120
    42  B          0.32503300       0.59060120       0.98066880
    43  B          0.17496700       0.09060120       0.51933120
    44  B          0.82503300       0.09060120       0.98066880
    45  B          0.32503300       0.40939880       0.48066880
    46  B          0.67496700       0.40939880       0.01933120
    47  B          0.82503300       0.90939880       0.48066880
    48  B          0.17496700       0.90939880       0.01933120
    49  B          0.59685700       0.68642120       0.57972130
    50  B          0.40314300       0.68642120       0.92027870
    51  B          0.09685700       0.18642120       0.57972130
    52  B          0.90314300       0.18642120       0.92027870
    53  B          0.40314300       0.31357880       0.42027870
    54  B          0.59685700       0.31357880       0.07972130
    55  B          0.90314300       0.81357880       0.42027870
    56  B          0.09685700       0.81357880       0.07972130
    57  B          0.59523700       0.85712130       0.56207120
    58  B          0.40476300       0.85712130       0.93792880
    59  B          0.09523700       0.35712130       0.56207120
    60  B          0.90476300       0.35712130       0.93792880
    61  B          0.40476300       0.14287870       0.43792880
    62  B          0.59523700       0.14287870       0.06207120
    63  B          0.90476300       0.64287870       0.43792880
    64  B          0.09523700       0.64287870       0.06207120
    65  B          0.68503700       0.90878120       0.62125120
    66  B          0.31496300       0.90878120       0.87874880
    67  B          0.18503700       0.40878120       0.62125120
    68  B          0.81496300       0.40878120       0.87874880
    69  B          0.31496300       0.09121880       0.37874880
    70  B          0.68503700       0.09121880       0.12125120
    71  B          0.81496300       0.59121880       0.37874880
    72  B          0.18503700       0.59121880       0.12125120
    73  S          0.60461917       0.82362300       0.85400300
    74  S          0.39538083       0.82362300       0.64599700
    75  S          0.10461917       0.32362300       0.85400300
    76  S          0.89538083       0.32362300       0.64599700
    77  S          0.39538083       0.17637700       0.14599700
    78  S          0.60461917       0.17637700       0.35400300
    79  S          0.89538083       0.67637700       0.14599700
    80  S          0.10461917       0.67637700       0.35400300
    81  H          0.64120000       0.73990000       0.91520000
    82  H          0.35880000       0.73990000       0.58480000
    83  H          0.14120000       0.23990000       0.91520000
    84  H          0.85880000       0.23990000       0.58480000
    85  H          0.35880000       0.26010000       0.08480000
    86  H          0.64120000       0.26010000       0.41520000
    87  H          0.85880000       0.76010000       0.08480000
    88  H          0.14120000       0.76010000       0.41520000
    89  H          0.77258000       0.80671300       0.78611500
    90  H          0.22742000       0.80671300       0.71388500
    91  H          0.27258000       0.30671300       0.78611500
    92  H          0.72742000       0.30671300       0.71388500
    93  H          0.22742000       0.19328700       0.21388500
    94  H          0.77258000       0.19328700       0.28611500
    95  H          0.72742000       0.69328700       0.21388500
    96  H          0.27258000       0.69328700       0.28611500
    97  H          0.80338000       0.59361300       0.64341300
    98  H          0.19662000       0.59361300       0.85658700
    99  H          0.30338000       0.09361300       0.64341300
   100  H          0.69662000       0.09361300       0.85658700
   101  H          0.19662000       0.40638700       0.35658700
   102  H          0.80338000       0.40638700       0.14341300
   103  H          0.69662000       0.90638700       0.35658700
   104  H          0.30338000       0.90638700       0.14341300
   105  H          0.67398000       0.56621400       0.74801400
   106  H          0.32602000       0.56621400       0.75198600
   107  H          0.17398000       0.06621400       0.74801400
   108  H          0.82602000       0.06621400       0.75198600
   109  H          0.32602000       0.43378600       0.25198600
   110  H          0.67398000       0.43378600       0.24801400
   111  H          0.82602000       0.93378600       0.25198600
   112  H          0.17398000       0.93378600       0.24801400
   113  H          0.83038000       0.84801300       0.58031400
   114  H          0.16962000       0.84801300       0.91968600
   115  H          0.33038000       0.34801300       0.58031400
   116  H          0.66962000       0.34801300       0.91968600
   117  H          0.16962000       0.15198700       0.41968600
   118  H          0.83038000       0.15198700       0.08031400
   119  H          0.66962000       0.65198700       0.41968600
   120  H          0.33038000       0.65198700       0.08031400
   121  H          0.66577000       0.49061400       0.49551300
   122  H          0.33423000       0.49061400       0.00448700
   123  H          0.16577000      -0.00938600       0.49551300
   124  H          0.83423000      -0.00938600       0.00448700
   125  H          0.33423000       0.50938600       0.50448700
   126  H          0.66577000       0.50938600      -0.00448700
   127  H          0.83423000       0.00938600       0.50448700
   128  H          0.16577000       0.00938600      -0.00448700
   129  H          0.54558000       0.63821400       0.57971400
   130  H          0.45442000       0.63821400       0.92028600
   131  H          0.04558000       0.13821400       0.57971400
   132  H          0.95442000       0.13821400       0.92028600
   133  H          0.45442000       0.36178600       0.42028600
   134  H          0.54558000       0.36178600       0.07971400
   135  H          0.95442000       0.86178600       0.42028600
   136  H          0.04558000       0.86178600       0.07971400
   137  H          0.58738000       0.76111500       0.48571400
   138  H          0.41262000       0.76111500       0.01428600
   139  H          0.08738000       0.26111500       0.48571400
   140  H          0.91262000       0.26111500       0.01428600
   141  H          0.41262000       0.23888500       0.51428600
   142  H          0.58738000       0.23888500       0.98571400
   143  H          0.91262000       0.73888500       0.51428600
   144  H          0.08738000       0.73888500       0.98571400
   145  H          0.54798000       0.91511400       0.54381300
   146  H          0.45202000       0.91511400       0.95618700
   147  H          0.04798000       0.41511400       0.54381300
   148  H          0.95202000       0.41511400       0.95618700
   149  H          0.45202000       0.08488600       0.45618700
   150  H          0.54798000       0.08488600       0.04381300
   151  H          0.95202000       0.58488600       0.45618700
   152  H          0.04798000       0.58488600       0.04381300
   153  H          0.64508000       0.90621500       0.51561400
   154  H          0.35492000       0.90621500       0.98438600
   155  H          0.14508000       0.40621500       0.51561400
   156  H          0.85492000       0.40621500       0.98438600
   157  H          0.35492000       0.09378500       0.48438600
   158  H          0.64508000       0.09378500       0.01561400
   159  H          0.85492000       0.59378500       0.48438600
   160  H          0.14508000       0.59378500       0.01561400
   161  H          0.69637000       0.00561400       0.64631300
   162  H          0.30363000       0.00561400       0.85368700
   163  H          0.19637000       0.50561400       0.64631300
   164  H          0.80363000       0.50561400       0.85368700
   165  H          0.30363000      -0.00561400       0.35368700
   166  H          0.69637000      -0.00561400       0.14631300
   167  H          0.80363000       0.49438600       0.35368700
   168  H          0.19637000       0.49438600       0.14631300
   169  C          0.50000000       0.59397170       0.25000000
   170  C          0.00000000       0.09397170       0.25000000
   171  C          0.50000000       0.40602830       0.75000000
   172  C         -0.00000000       0.90602830       0.75000000
   173  H          0.50000000       0.50340000       0.25000000
   174  H          0.00000000       0.00340000       0.25000000
   175  H          0.50000000       0.49660000       0.75000000
   176  H         -0.00000000      -0.00340000       0.75000000
   177  C          0.55158700       0.66013130       0.19618130
   178  C          0.44841300       0.66013130       0.30381870
   179  C          0.05158700       0.16013130       0.19618130
   180  C          0.94841300       0.16013130       0.30381870
   181  C          0.44841300       0.33986870       0.80381870
   182  C          0.55158700       0.33986870       0.69618130
   183  C          0.94841300       0.83986870       0.80381870
   184  C          0.05158700       0.83986870       0.69618130
   185  H          0.58680000       0.61490000       0.15890000
   186  H          0.41320000       0.61490000       0.34110000
   187  H          0.08680000       0.11490000       0.15890000
   188  H          0.91320000       0.11490000       0.34110000
   189  H          0.41320000       0.38510000       0.84110000
   190  H          0.58680000       0.38510000       0.65890000
   191  H          0.91320000       0.88510000       0.84110000
   192  H          0.08680000       0.88510000       0.65890000
   193  C          0.55180700       0.79175130       0.19676120
   194  C          0.44819300       0.79175130       0.30323880
   195  C          0.05180700       0.29175130       0.19676120
   196  C          0.94819300       0.29175130       0.30323880
   197  C          0.44819300       0.20824870       0.80323880
   198  C          0.55180700       0.20824870       0.69676120
   199  C          0.94819300       0.70824870       0.80323880
   200  C          0.05180700       0.70824870       0.69676120
   201  H          0.58750000       0.83710000       0.16070000
   202  H          0.41250000       0.83710000       0.33930000
   203  H          0.08750000       0.33710000       0.16070000
   204  H          0.91250000       0.33710000       0.33930000
   205  H          0.41250000       0.16290000       0.83930000
   206  H          0.58750000       0.16290000       0.66070000
   207  H          0.91250000       0.66290000       0.83930000
   208  H          0.08750000       0.66290000       0.66070000
   209  C          0.50000000       0.85767180       0.25000000
   210  C          0.00000000       0.35767180       0.25000000
   211  C          0.50000000       0.14232820       0.75000000
   212  C         -0.00000000       0.64232820       0.75000000
   213  H          0.50000000       0.94820000       0.25000000
   214  H          0.00000000       0.44820000       0.25000000
   215  H          0.50000000       0.05180000       0.75000000
   216  H         -0.00000000       0.55180000       0.75000000
