data_MINRUY
_symmetry_space_group_name_H-M    'P1'
_symmetry_Int_Tables_number       1
loop_
_symmetry_equiv_pos_site_id
_symmetry_equiv_pos_as_xyz
1 x,y,z
_cell_length_a                   29.7967
_cell_length_b                   6.366813
_cell_length_c                   16.5694
_cell_angle_alpha                90.0
_cell_angle_beta                 109.0543
_cell_angle_gamma                90.0
loop_
_atom_site_label
_atom_site_type_symbol
_atom_site_fract_x
_atom_site_fract_y
_atom_site_fract_z
     1  I          0.20030150       0.24410618       0.81945090
     2  I          0.79969850       0.24410618       0.68054910
     3  I          0.70030150       0.74410618       0.81945090
     4  I          0.29969850       0.74410618       0.68054910
     5  I          0.79969850       0.75589382       0.18054910
     6  I          0.20030150       0.75589382       0.31945090
     7  I          0.29969850       0.25589382       0.18054910
     8  I          0.70030150       0.25589382       0.31945090
     9  S          0.05201017      -0.00168300       0.18308300
    10  S          0.94798983      -0.00168300       0.31691700
    11  S          0.55201017       0.49831700       0.18308300
    12  S          0.44798983       0.49831700       0.31691700
    13  S          0.94798983       0.00168300       0.81691700
    14  S          0.05201017       0.00168300       0.68308300
    15  S          0.44798983       0.50168300       0.81691700
    16  S          0.55201017       0.50168300       0.68308300
    17  O          0.07409600       0.93552000       0.12274100
    18  O          0.92590400       0.93552000       0.37725900
    19  O          0.57409600       0.43552000       0.12274100
    20  O          0.42590400       0.43552000       0.37725900
    21  O          0.92590400       0.06448000       0.87725900
    22  O          0.07409600       0.06448000       0.62274100
    23  O          0.42590400       0.56448000       0.87725900
    24  O          0.57409600       0.56448000       0.62274100
    25  O          0.00658600       0.09722000       0.15329100
    26  O          0.99341400       0.09722000       0.34670900
    27  O          0.50658600       0.59722000       0.15329100
    28  O          0.49341400       0.59722000       0.34670900
    29  O          0.99341400       0.90278000       0.84670900
    30  O          0.00658600       0.90278000       0.65329100
    31  O          0.49341400       0.40278000       0.84670900
    32  O          0.50658600       0.40278000       0.65329100
    33  N          0.11490600       0.68152000       0.54836110
    34  N          0.88509400       0.68152000       0.95163890
    35  N          0.61490600       0.18152000       0.54836110
    36  N          0.38509400       0.18152000       0.95163890
    37  N          0.88509400       0.31848000       0.45163890
    38  N          0.11490600       0.31848000       0.04836110
    39  N          0.38509400       0.81848000       0.45163890
    40  N          0.61490600       0.81848000       0.04836110
    41  N          0.04824700       0.79112000       0.24433120
    42  N          0.95175300       0.79112000       0.25566880
    43  N          0.54824700       0.29112000       0.24433120
    44  N          0.45175300       0.29112000       0.25566880
    45  N          0.95175300       0.20888000       0.75566880
    46  N          0.04824700       0.20888000       0.74433120
    47  N          0.45175300       0.70888000       0.75566880
    48  N          0.54824700       0.70888000       0.74433120
    49  N          0.08971600       0.15092000       0.25849110
    50  N          0.91028400       0.15092000       0.24150890
    51  N          0.58971600       0.65092000       0.25849110
    52  N          0.41028400       0.65092000       0.24150890
    53  N          0.91028400       0.84908000       0.74150890
    54  N          0.08971600       0.84908000       0.75849110
    55  N          0.41028400       0.34908000       0.74150890
    56  N          0.58971600       0.34908000       0.75849110
    57  N          0.16940600       0.02542000       0.55875110
    58  N          0.83059400       0.02542000       0.94124890
    59  N          0.66940600       0.52542000       0.55875110
    60  N          0.33059400       0.52542000       0.94124890
    61  N          0.83059400       0.97458000       0.44124890
    62  N          0.16940600       0.97458000       0.05875110
    63  N          0.33059400       0.47458000       0.44124890
    64  N          0.66940600       0.47458000       0.05875110
    65  C          0.10959700       0.78733000       0.47565130
    66  C          0.89040300       0.78733000       0.02434870
    67  C          0.60959700       0.28733000       0.47565130
    68  C          0.39040300       0.28733000       0.02434870
    69  C          0.89040300       0.21267000       0.52434870
    70  C          0.10959700       0.21267000       0.97565130
    71  C          0.39040300       0.71267000       0.52434870
    72  C          0.60959700       0.71267000       0.97565130
    73  C          0.08850800       0.51073000       0.54527130
    74  C          0.91149200       0.51073000       0.95472870
    75  C          0.58850800       0.01073000       0.54527130
    76  C          0.41149200       0.01073000       0.95472870
    77  C          0.91149200       0.48927000       0.45472870
    78  C          0.08850800       0.48927000       0.04527130
    79  C          0.41149200      -0.01073000       0.45472870
    80  C          0.58850800      -0.01073000       0.04527130
    81  C          0.05572800       0.43423000       0.47081140
    82  C          0.94427200       0.43423000       0.02918860
    83  C          0.55572800       0.93423000       0.47081140
    84  C          0.44427200       0.93423000       0.02918860
    85  C          0.94427200       0.56577000       0.52918860
    86  C          0.05572800       0.56577000       0.97081140
    87  C          0.44427200       0.06577000       0.52918860
    88  C          0.55572800       0.06577000       0.97081140
    89  C          0.05046700       0.53823000       0.39521130
    90  C          0.94953300       0.53823000       0.10478870
    91  C          0.55046700       0.03823000       0.39521130
    92  C          0.44953300       0.03823000       0.10478870
    93  C          0.94953300       0.46177000       0.60478870
    94  C          0.05046700       0.46177000       0.89521130
    95  C          0.44953300       0.96177000       0.60478870
    96  C          0.55046700       0.96177000       0.89521130
    97  C          0.07797800       0.71753000       0.39722130
    98  C          0.92202200       0.71753000       0.10277870
    99  C          0.57797800       0.21753000       0.39722130
   100  C          0.42202200       0.21753000       0.10277870
   101  C          0.92202200       0.28247000       0.60277870
   102  C          0.07797800       0.28247000       0.89722130
   103  C          0.42202200       0.78247000       0.60277870
   104  C          0.57797800       0.78247000       0.89722130
   105  C          0.07377700       0.83952000       0.32111120
   106  C          0.92622300       0.83952000       0.17888880
   107  C          0.57377700       0.33952000       0.32111120
   108  C          0.42622300       0.33952000       0.17888880
   109  C          0.92622300       0.16048000       0.67888880
   110  C          0.07377700       0.16048000       0.82111120
   111  C          0.42622300       0.66048000       0.67888880
   112  C          0.57377700       0.66048000       0.82111120
   113  C          0.09907700       0.04782000       0.32882120
   114  C          0.90092300       0.04782000       0.17117880
   115  C          0.59907700       0.54782000       0.32882120
   116  C          0.40092300       0.54782000       0.17117880
   117  C          0.90092300       0.95218000       0.67117880
   118  C          0.09907700       0.95218000       0.82882120
   119  C          0.40092300       0.45218000       0.67117880
   120  C          0.59907700       0.45218000       0.82882120
   121  C          0.13185700       0.11202000       0.41129120
   122  C          0.86814300       0.11202000       0.08870880
   123  C          0.63185700       0.61202000       0.41129120
   124  C          0.36814300       0.61202000       0.08870880
   125  C          0.86814300       0.88798000       0.58870880
   126  C          0.13185700       0.88798000       0.91129120
   127  C          0.36814300       0.38798000       0.58870880
   128  C          0.63185700       0.38798000       0.91129120
   129  C          0.15855800       0.29583000       0.42097140
   130  C          0.84144200       0.29583000       0.07902860
   131  C          0.65855800       0.79583000       0.42097140
   132  C          0.34144200       0.79583000       0.07902860
   133  C          0.84144200       0.70417000       0.57902860
   134  C          0.15855800       0.70417000       0.92097140
   135  C          0.34144200       0.20417000       0.57902860
   136  C          0.65855800       0.20417000       0.92097140
   137  C          0.19082800       0.34133000       0.49985140
   138  C          0.80917200       0.34133000       0.00014860
   139  C          0.69082800       0.84133000       0.49985140
   140  C          0.30917200       0.84133000       0.00014860
   141  C          0.80917200       0.65867000       0.50014860
   142  C          0.19082800       0.65867000      -0.00014860
   143  C          0.30917200       0.15867000       0.50014860
   144  C          0.69082800       0.15867000      -0.00014860
   145  C          0.19497900       0.20063000       0.56636150
   146  C          0.80502100       0.20063000       0.93363850
   147  C          0.69497900       0.70063000       0.56636150
   148  C          0.30502100       0.70063000       0.93363850
   149  C          0.80502100       0.79937000       0.43363850
   150  C          0.19497900       0.79937000       0.06636150
   151  C          0.30502100       0.29937000       0.43363850
   152  C          0.69497900       0.29937000       0.06636150
   153  C          0.13801700      -0.01768000       0.48219120
   154  C          0.86198300      -0.01768000       0.01780880
   155  C          0.63801700       0.48232000       0.48219120
   156  C          0.36198300       0.48232000       0.01780880
   157  C          0.86198300       0.01768000       0.51780880
   158  C          0.13801700       0.01768000       0.98219120
   159  C          0.36198300       0.51768000       0.51780880
   160  C          0.63801700       0.51768000       0.98219120
   161  H          0.09240000       0.43710000       0.59700000
   162  H          0.90760000       0.43710000       0.90300000
   163  H          0.59240000       0.93710000       0.59700000
   164  H          0.40760000       0.93710000       0.90300000
   165  H          0.90760000       0.56290000       0.40300000
   166  H          0.09240000       0.56290000       0.09700000
   167  H          0.40760000       0.06290000       0.40300000
   168  H          0.59240000       0.06290000       0.09700000
   169  H          0.03730000       0.31300000       0.47190000
   170  H          0.96270000       0.31300000       0.02810000
   171  H          0.53730000       0.81300000       0.47190000
   172  H          0.46270000       0.81300000       0.02810000
   173  H          0.96270000       0.68700000       0.52810000
   174  H          0.03730000       0.68700000       0.97190000
   175  H          0.46270000       0.18700000       0.52810000
   176  H          0.53730000       0.18700000       0.97190000
   177  H          0.02860000       0.48920000       0.34290000
   178  H          0.97140000       0.48920000       0.15710000
   179  H          0.52860000      -0.01080000       0.34290000
   180  H          0.47140000      -0.01080000       0.15710000
   181  H          0.97140000       0.51080000       0.65710000
   182  H          0.02860000       0.51080000       0.84290000
   183  H          0.47140000       0.01080000       0.65710000
   184  H          0.52860000       0.01080000       0.84290000
   185  H          0.15460000       0.38780000       0.37400000
   186  H          0.84540000       0.38780000       0.12600000
   187  H          0.65460000       0.88780000       0.37400000
   188  H          0.34540000       0.88780000       0.12600000
   189  H          0.84540000       0.61220000       0.62600000
   190  H          0.15460000       0.61220000       0.87400000
   191  H          0.34540000       0.11220000       0.62600000
   192  H          0.65460000       0.11220000       0.87400000
   193  H          0.20970000       0.46490000       0.50870000
   194  H          0.79030000       0.46490000      -0.00870000
   195  H          0.70970000       0.96490000       0.50870000
   196  H          0.29030000       0.96490000      -0.00870000
   197  H          0.79030000       0.53510000       0.49130000
   198  H          0.20970000       0.53510000       0.00870000
   199  H          0.29030000       0.03510000       0.49130000
   200  H          0.70970000       0.03510000       0.00870000
   201  H          0.21750000       0.23150000       0.62060000
   202  H          0.78250000       0.23150000       0.87940000
   203  H          0.71750000       0.73150000       0.62060000
   204  H          0.28250000       0.73150000       0.87940000
   205  H          0.78250000       0.76850000       0.37940000
   206  H          0.21750000       0.76850000       0.12060000
   207  H          0.28250000       0.26850000       0.37940000
   208  H          0.71750000       0.26850000       0.12060000
   209  N          0.18550900       0.74942000       0.70840140
   210  N          0.81449100       0.74942000       0.79159860
   211  N          0.68550900       0.24942000       0.70840140
   212  N          0.31449100       0.24942000       0.79159860
   213  N          0.81449100       0.25058000       0.29159860
   214  N          0.18550900       0.25058000       0.20840140
   215  N          0.31449100       0.75058000       0.29159860
   216  N          0.68550900       0.75058000       0.20840140
   217  H          0.21231600       0.75130000       0.69920000
   218  H          0.78768400       0.75130000       0.80080000
   219  H          0.71231600       0.25130000       0.69920000
   220  H          0.28768400       0.25130000       0.80080000
   221  H          0.78768400       0.24870000       0.30080000
   222  H          0.21231600       0.24870000       0.19920000
   223  H          0.28768400       0.74870000       0.30080000
   224  H          0.71231600       0.74870000       0.19920000
   225  H          0.18201000       0.87050000       0.73661900
   226  H          0.81799000       0.87050000       0.76338100
   227  H          0.68201000       0.37050000       0.73661900
   228  H          0.31799000       0.37050000       0.76338100
   229  H          0.81799000       0.12950000       0.26338100
   230  H          0.18201000       0.12950000       0.23661900
   231  H          0.31799000       0.62950000       0.26338100
   232  H          0.68201000       0.62950000       0.23661900
   233  H          0.18391000       0.62740000       0.73971800
   234  H          0.81609000       0.62740000       0.76028200
   235  H          0.68391000       0.12740000       0.73971800
   236  H          0.31609000       0.12740000       0.76028200
   237  H          0.81609000       0.37260000       0.26028200
   238  H          0.18391000       0.37260000       0.23971800
   239  H          0.31609000       0.87260000       0.26028200
   240  H          0.68391000       0.87260000       0.23971800
   241  H          0.16111800       0.75240000       0.66230000
   242  H          0.83888200       0.75240000       0.83770000
   243  H          0.66111800       0.25240000       0.66230000
   244  H          0.33888200       0.25240000       0.83770000
   245  H          0.83888200       0.24760000       0.33770000
   246  H          0.16111800       0.24760000       0.16230000
   247  H          0.33888200       0.74760000       0.33770000
   248  H          0.66111800       0.74760000       0.16230000
