data_MOBVUX
_symmetry_space_group_name_H-M    'P1'
_symmetry_Int_Tables_number       1
loop_
_symmetry_equiv_pos_site_id
_symmetry_equiv_pos_as_xyz
1 x,y,z
_cell_length_a                   4.48932
_cell_length_b                   15.56655
_cell_length_c                   24.46539
_cell_angle_alpha                90.0
_cell_angle_beta                 92.8942
_cell_angle_gamma                90.0
loop_
_atom_site_label
_atom_site_type_symbol
_atom_site_fract_x
_atom_site_fract_y
_atom_site_fract_z
     1  I          0.72111700       0.79731200       0.54697200
     2  I          0.27888300       0.29731200       0.95302800
     3  I          0.27888300       0.20268800       0.45302800
     4  I          0.72111700       0.70268800       0.04697200
     5  F          0.89046000       0.90741170       0.44396120
     6  F          0.10954000       0.40741170       0.05603880
     7  F          0.10954000       0.09258830       0.55603880
     8  F          0.89046000       0.59258830       0.94396120
     9  F          0.71506000       0.05875190       0.40578110
    10  F          0.28494000       0.55875190       0.09421890
    11  F          0.28494000       0.94124810       0.59421890
    12  F          0.71506000       0.44124810       0.90578110
    13  C          0.58909000       0.91823000       0.51974180
    14  C          0.41091000       0.41823000       0.98025820
    15  C          0.41091000       0.08177000       0.48025820
    16  C          0.58909000       0.58177000       0.01974180
    17  C          0.60509000       0.03173000       0.45284170
    18  C          0.39491000       0.53173000       0.04715830
    19  C          0.39491000       0.96827000       0.54715830
    20  C          0.60509000       0.46827000       0.95284170
    21  C          0.69609000       0.95233000       0.47182170
    22  C          0.30391000       0.45233000       0.02817830
    23  C          0.30391000       0.04767000       0.52817830
    24  C          0.69609000       0.54767000       0.97182170
    25  I          0.12588600       0.60301200       0.60423200
    26  I          0.87411400       0.10301200       0.89576800
    27  I          0.87411400       0.39698800       0.39576800
    28  I          0.12588600       0.89698800       0.10423200
    29  F          0.16586000       0.64076160       0.47429100
    30  F          0.83414000       0.14076160       0.02570900
    31  F          0.83414000       0.35923840       0.52570900
    32  F          0.16586000       0.85923840       0.97429100
    33  F          0.53176000       0.43484160       0.60287100
    34  F          0.46824000       0.93484160       0.89712900
    35  F          0.46824000       0.56515840       0.39712900
    36  F          0.53176000       0.06515840       0.10287100
    37  C          0.34149000       0.54083000       0.54130160
    38  C          0.65851000       0.04083000       0.95869840
    39  C          0.65851000       0.45917000       0.45869840
    40  C          0.34149000       0.95917000       0.04130160
    41  C          0.51059000       0.46843000       0.55202160
    42  C          0.48941000       0.96843000       0.94797840
    43  C          0.48941000       0.53157000       0.44797840
    44  C          0.51059000       0.03157000       0.05202160
    45  C          0.33239000       0.57172000       0.48851170
    46  C          0.66761000       0.07172000       0.01148830
    47  C          0.66761000       0.42828000       0.51148830
    48  C          0.33239000       0.92828000       0.98851170
    49  N          0.67927000       0.63522000       0.71603140
    50  N          0.32073000       0.13522000       0.78396860
    51  N          0.32073000       0.36478000       0.28396860
    52  N          0.67927000       0.86478000       0.21603140
    53  N          0.86358000       0.68702000       0.69466140
    54  N          0.13642000       0.18702000       0.80533860
    55  N          0.13642000       0.31298000       0.30533860
    56  N          0.86358000       0.81298000       0.19466140
    57  C          0.25981000       0.60373000       0.83755190
    58  C          0.74019000       0.10373000       0.66244810
    59  C          0.74019000       0.39627000       0.16244810
    60  C          0.25981000       0.89627000       0.33755190
    61  H          0.12624000       0.56410500       0.85080700
    62  H          0.87376000       0.06410500       0.64919300
    63  H          0.87376000       0.43589500       0.14919300
    64  H          0.12624000       0.93589500       0.35080700
    65  C          0.34961000       0.67503000       0.86961190
    66  C          0.65039000       0.17503000       0.63038810
    67  C          0.65039000       0.32497000       0.13038810
    68  C          0.34961000       0.82497000       0.36961190
    69  H          0.27552300       0.68206000       0.90414300
    70  H          0.72447700       0.18206000       0.59585700
    71  H          0.72447700       0.31794000       0.09585700
    72  H          0.27552300       0.81794000       0.40414300
    73  C          0.54689000       0.73483000       0.85037170
    74  C          0.45311000       0.23483000       0.64962830
    75  C          0.45311000       0.26517000       0.14962830
    76  C          0.54689000       0.76517000       0.35037170
    77  H          0.60466200       0.78158500       0.87202500
    78  H          0.39533800       0.28158500       0.62797500
    79  H          0.39533800       0.21841500       0.12797500
    80  H          0.60466200       0.71841500       0.37202500
    81  C          0.66018000       0.72503000       0.79823170
    82  C          0.33982000       0.22503000       0.70176830
    83  C          0.33982000       0.27497000       0.20176830
    84  C          0.66018000       0.77497000       0.29823170
    85  C          0.85848000       0.78352000       0.77359160
    86  C          0.14152000       0.28352000       0.72640840
    87  C          0.14152000       0.21648000       0.22640840
    88  C          0.85848000       0.71648000       0.27359160
    89  C          0.96599000       0.86103000       0.79711170
    90  C          0.03401000       0.36103000       0.70288830
    91  C          0.03401000       0.13897000       0.20288830
    92  C          0.96599000       0.63897000       0.29711170
    93  H          0.90746000       0.87666600       0.83166200
    94  H          0.09254000       0.37666600       0.66833800
    95  H          0.09254000       0.12333400       0.16833800
    96  H          0.90746000       0.62333400       0.33166200
    97  C          0.15289000       0.91343000       0.77043180
    98  C          0.84711000       0.41343000       0.72956820
    99  C          0.84711000       0.08657000       0.22956820
   100  C          0.15289000       0.58657000       0.27043180
   101  H          0.21967100       0.96433100       0.78663800
   102  H          0.78032900       0.46433100       0.71336200
   103  H          0.78032900       0.03566900       0.21336200
   104  H          0.21967100       0.53566900       0.28663800
   105  C          0.24521000       0.89033000       0.71814180
   106  C          0.75479000       0.39033000       0.78185820
   107  C          0.75479000       0.10967000       0.28185820
   108  C          0.24521000       0.60967000       0.21814180
   109  H          0.37281300       0.92618100       0.69988500
   110  H          0.62718700       0.42618100       0.80011500
   111  H          0.62718700       0.07381900       0.30011500
   112  H          0.37281300       0.57381900       0.19988500
   113  C          0.36869000       0.59283000       0.78705190
   114  C          0.63131000       0.09283000       0.71294810
   115  C          0.63131000       0.40717000       0.21294810
   116  C          0.36869000       0.90717000       0.28705190
   117  H          0.30883400       0.54577900       0.76576200
   118  H          0.69116600       0.04577900       0.73423800
   119  H          0.69116600       0.45422100       0.23423800
   120  H          0.30883400       0.95422100       0.26576200
   121  C          0.57258000       0.65293000       0.76697170
   122  C          0.42742000       0.15293000       0.73302830
   123  C          0.42742000       0.34707000       0.23302830
   124  C          0.57258000       0.84707000       0.26697170
   125  C          0.95438000       0.76202000       0.72122160
   126  C          0.04562000       0.26202000       0.77877840
   127  C          0.04562000       0.23798000       0.27877840
   128  C          0.95438000       0.73798000       0.22122160
   129  C          0.14829000       0.81593000       0.69446160
   130  C          0.85171000       0.31593000       0.80553840
   131  C          0.85171000       0.18407000       0.30553840
   132  C          0.14829000       0.68407000       0.19446160
   133  H          0.21143700       0.80075900       0.66015500
   134  H          0.78856300       0.30075900       0.83984500
   135  H          0.78856300       0.19924100       0.33984500
   136  H          0.21143700       0.69924100       0.16015500
