data_MOBVAA
_symmetry_space_group_name_H-M    'P1'
_symmetry_Int_Tables_number       1
loop_
_symmetry_equiv_pos_site_id
_symmetry_equiv_pos_as_xyz
1 x,y,z
_cell_length_a                   7.428414
_cell_length_b                   10.082118
_cell_length_c                   13.0412
_cell_angle_alpha                97.9504
_cell_angle_beta                 90.8414
_cell_angle_gamma                97.7754
loop_
_atom_site_label
_atom_site_type_symbol
_atom_site_fract_x
_atom_site_fract_y
_atom_site_fract_z
     1  B          0.81723000       0.74135000       0.13594000
     2  B          0.18277000       0.25865000       0.86406000
     3  C          0.75094000       0.76894000       0.03083000
     4  C          0.24906000       0.23106000       0.96917000
     5  C          0.72994000       0.89895000       0.01344000
     6  C          0.27006000       0.10105000       0.98656000
     7  H          0.75820000       0.97000000       0.06720000
     8  H          0.24180000       0.03000000       0.93280000
     9  C          0.66814000       0.92645000       0.91846000
    10  C          0.33186000       0.07355000       0.08154000
    11  H          0.65770000       0.01480000       0.90900000
    12  H          0.34230000      -0.01480000       0.09100000
    13  C          0.62264000       0.82234000       0.83896000
    14  C          0.37736000       0.17766000       0.16104000
    15  H          0.57990000       0.84060000       0.77570000
    16  H          0.42010000       0.15940000       0.22430000
    17  C          0.59264000       0.58295000       0.76897000
    18  C          0.40736000       0.41705000       0.23103000
    19  H          0.55140000       0.60190000       0.70570000
    20  H          0.44860000       0.39810000       0.29430000
    21  C          0.60744000       0.45375000       0.78237000
    22  C          0.39256000       0.54625000       0.21763000
    23  H          0.57480000       0.38400000       0.72820000
    24  H          0.42520000       0.61600000       0.27180000
    25  C          0.67154000       0.42425000       0.87687000
    26  C          0.32846000       0.57575000       0.12313000
    27  H          0.68050000       0.33460000       0.88360000
    28  H          0.31950000       0.66540000       0.11640000
    29  C          0.72204000       0.52274000       0.96057000
    30  C          0.27796000       0.47726000       0.03943000
    31  C          0.70424000       0.65964000       0.94847000
    32  C          0.29576000       0.34036000       0.05153000
    33  C          0.64014000       0.68824000       0.85187000
    34  C          0.35986000       0.31176000       0.14813000
    35  C          0.84324000       0.59404000       0.14583000
    36  C          0.15676000       0.40596000       0.85417000
    37  C          0.79374000       0.49004000       0.06043000
    38  C          0.20626000       0.50996000       0.93957000
    39  C          0.81804000       0.35914000       0.07613000
    40  C          0.18196000       0.64086000       0.92387000
    41  C          0.88064000       0.32864000       0.16734000
    42  C          0.11936000       0.67136000       0.83266000
    43  C          0.92744000       0.42654000       0.24943000
    44  C          0.07256000       0.57346000       0.75057000
    45  C          0.90804000       0.55744000       0.23783000
    46  C          0.09196000       0.44256000       0.76217000
    47  C          0.85644000       0.86154000       0.22953000
    48  C          0.14356000       0.13846000       0.77047000
    49  C          0.02866000       0.91104000       0.27083000
    50  C          0.97134000       0.08896000       0.72917000
    51  C          0.06536000       0.01584000       0.35213000
    52  C          0.93464000      -0.01584000       0.64787000
    53  C          0.92044000       0.07344000       0.39503000
    54  C          0.07956000       0.92656000       0.60497000
    55  C          0.74743000       0.02864000       0.35803000
    56  C          0.25257000       0.97136000       0.64197000
    57  C          0.71754000       0.92484000       0.27634000
    58  C          0.28246000       0.07516000       0.72366000
    59  F          0.77636000       0.25022000       0.00172000
    60  F          0.22364000       0.74978000      -0.00172000
    61  F          0.89916000       0.19972000       0.17682000
    62  F          0.10084000       0.80028000       0.82318000
    63  F         -0.00934000       0.39612000       0.33891190
    64  F          0.00934000       0.60388000       0.66108810
    65  F          0.95996000       0.65162000       0.32061190
    66  F          0.04004000       0.34838000       0.67938810
    67  F          0.17173000       0.85482000       0.23083190
    68  F          0.82827000       0.14518000       0.76916810
    69  F          0.23404000       0.05843000       0.38912000
    70  F          0.76596000       0.94157000       0.61088000
    71  F          0.95276000       0.17402000       0.47522190
    72  F          0.04724000       0.82598000       0.52477810
    73  F          0.60776000       0.08483000       0.40032000
    74  F          0.39224000       0.91517000       0.59968000
    75  F          0.54457000       0.88263000       0.24202000
    76  F          0.45543000       0.11737000       0.75798000
    77  C          0.68073000       0.54926000       0.49094000
    78  C          0.31927000       0.45074000       0.50906000
    79  H          0.80260000       0.58220000       0.48450000
    80  H          0.19740000       0.41780000       0.51550000
    81  C          0.62981000       0.41646000       0.50584000
    82  C          0.37019000       0.58354000       0.49416000
    83  H          0.71780000       0.35980000       0.51010000
    84  H          0.28220000       0.64020000       0.48990000
    85  C          0.54951000       0.63185000       0.48574000
    86  C          0.45049000       0.36815000       0.51426000
    87  H          0.58300000       0.72150000       0.47640000
    88  H          0.41700000       0.27850000       0.52360000
