data_MOCGET
_symmetry_space_group_name_H-M    'P1'
_symmetry_Int_Tables_number       1
loop_
_symmetry_equiv_pos_site_id
_symmetry_equiv_pos_as_xyz
1 x,y,z
_cell_length_a                   11.57004
_cell_length_b                   11.67624
_cell_length_c                   11.75224
_cell_angle_alpha                70.4842
_cell_angle_beta                 63.8122
_cell_angle_gamma                73.8492
loop_
_atom_site_label
_atom_site_type_symbol
_atom_site_fract_x
_atom_site_fract_y
_atom_site_fract_z
     1  I          0.82408200       0.81752200       0.27678200
     2  I          0.17591800       0.18247800       0.72321800
     3  I          0.78922200       0.33088200       0.76928800
     4  I          0.21077800       0.66911800       0.23071200
     5  F          0.69477170       0.09918160       0.27280160
     6  F          0.30522830       0.90081840       0.72719840
     7  F          0.68898180       0.29601150       0.07797180
     8  F          0.31101820       0.70398850       0.92202820
     9  F          0.90758190       0.04670170       0.77545840
    10  F          0.09241810       0.95329830       0.22454160
    11  F          0.92606190       0.85314160       0.96980820
    12  F          0.07393810       0.14685840       0.03019180
    13  C          0.80893000       0.97022000       0.12703000
    14  C          0.19107000       0.02978000       0.87297000
    15  C          0.86293000       0.96023000      -0.00173000
    16  C          0.13707000       0.03977000       0.00173000
    17  C          0.85503000       0.06203000       0.89777000
    18  C          0.14497000       0.93797000       0.10223000
    19  C          0.79653000       0.17743000       0.92077000
    20  C          0.20347000       0.82257000       0.07923000
    21  C          0.74883000       0.08473000       0.15043000
    22  C          0.25117000       0.91527000       0.84957000
    23  C          0.74443000       0.18633000       0.04903000
    24  C          0.25557000       0.81367000       0.95097000
    25  N          0.48283000       0.26512000       0.68253000
    26  N          0.51717000       0.73488000       0.31747000
    27  H          0.42940000       0.28640000       0.64840000
    28  H          0.57060000       0.71360000       0.35160000
    29  H          0.45440000       0.28530000       0.73940000
    30  H          0.54560000       0.71470000       0.26060000
    31  N          0.66833000       0.46112000       0.47113000
    32  N          0.33167000       0.53888000       0.52887000
    33  H          0.60540000       0.41830000       0.52330000
    34  H          0.39460000       0.58170000       0.47670000
    35  H          0.72840000       0.42140000       0.44540000
    36  H          0.27160000       0.57860000       0.55460000
    37  C          0.14643000       0.78843000       0.62883000
    38  C          0.85357000       0.21157000       0.37117000
    39  H          0.23307900       0.79267500       0.61345800
    40  H          0.76692100       0.20732500       0.38654200
    41  C          0.06783000       0.72602000       0.75033000
    42  C          0.93217000       0.27398000       0.24967000
    43  H          0.09981000       0.68720800       0.81808700
    44  H          0.90019000       0.31279200       0.18191300
    45  C          0.94013000       0.72162000       0.77093000
    46  C          0.05987000       0.27838000       0.22907000
    47  C          0.89372000       0.78022000       0.67043000
    48  C          0.10628000       0.21978000       0.32957000
    49  C          0.75082000       0.76572000       0.71712000
    50  C          0.24918000       0.23428000       0.28288000
    51  C          0.66722000       0.89452000       0.71363000
    52  C          0.33278000       0.10548000       0.28637000
    53  C          0.63813000       0.95512000       0.80963000
    54  C          0.36187000       0.04488000       0.19037000
    55  H          0.66210500       0.91254300       0.88226700
    56  H          0.33789500       0.08745700       0.11773300
    57  C          0.57503000       0.07553000       0.80173000
    58  C          0.42497000       0.92447000       0.19827000
    59  H          0.55673100       0.11434600       0.86836700
    60  H          0.44326900       0.88565400       0.13163300
    61  C          0.53833000       0.14012000       0.69633000
    62  C          0.46167000       0.85988000       0.30367000
    63  C          0.69003000       0.53752000       0.52673000
    64  C          0.30997000       0.46248000       0.47327000
    65  C          0.81563000       0.55402000       0.49863000
    66  C          0.18437000       0.44598000       0.50137000
    67  H          0.88840900       0.51309400       0.43941500
    68  H          0.11159100       0.48690600       0.56058500
    69  C          0.83593000       0.62972000       0.55612000
    70  C          0.16407000       0.37028000       0.44388000
    71  H          0.92239200       0.63826300       0.53657800
    72  H          0.07760800       0.36173700       0.46342200
    73  C          0.73103000       0.69322000       0.64222000
    74  C          0.26897000       0.30678000       0.35778000
    75  C          0.56443000       0.08042000       0.60133000
    76  C          0.43557000       0.91958000       0.39867000
    77  H          0.53793700       0.12231400       0.53010700
    78  H          0.46206300       0.87768600       0.46989300
    79  C          0.62943000       0.95932000       0.60933000
    80  C          0.37057000       0.04068000       0.39067000
    81  H          0.64803900       0.92065000       0.54240900
    82  H          0.35196100       0.07935000       0.45759100
    83  C          0.72513000       0.68902000       0.85802000
    84  C          0.27487000       0.31098000       0.14198000
    85  C          0.83563000       0.66562000       0.88733000
    86  C          0.16437000       0.33438000       0.11267000
    87  C          0.97323000       0.84192000       0.54923000
    88  C          0.02677000       0.15808000       0.45077000
    89  H          0.94146600       0.88135300       0.48136100
    90  H          0.05853400       0.11864700       0.51863900
    91  C          0.10033000       0.84492000       0.52883000
    92  C          0.89967000       0.15508000       0.47117000
    93  H          0.15621100       0.88585800       0.44584100
    94  H          0.84378900       0.11414200       0.55415900
    95  C          0.83283000       0.60042000       0.01093000
    96  C          0.16717000       0.39958000      -0.01093000
    97  H          0.90711300       0.58655500       0.03137700
    98  H          0.09288700       0.41344500       0.96862300
    99  C          0.71923000       0.55562000       0.10423000
   100  C          0.28077000       0.44438000       0.89577000
   101  H          0.71609500       0.50988100       0.18901900
   102  H          0.28390500       0.49011900       0.81098100
   103  C          0.61053000       0.57712000       0.07473000
   104  C          0.38947000       0.42288000       0.92527000
   105  H          0.53378100       0.54539400       0.13939900
   106  H          0.46621900       0.45460600       0.86060100
   107  C          0.61213000       0.64442000       0.95173000
   108  C          0.38787000       0.35558000       0.04827000
   109  H          0.53691700       0.65954200       0.93219200
   110  H          0.46308300       0.34045800       0.06780800
   111  C          0.60573000       0.68072000       0.66393000
   112  C          0.39427000       0.31928000       0.33607000
   113  H          0.53263600       0.72606200       0.71820400
   114  H          0.46736400       0.27393800       0.28179600
   115  C          0.58463000       0.60462000       0.60893000
   116  C          0.41537000       0.39538000       0.39107000
   117  H          0.49801000       0.59763300       0.62688700
   118  H          0.50199000       0.40236700       0.37311300
