data_MODGIX
_symmetry_space_group_name_H-M    'P1'
_symmetry_Int_Tables_number       1
loop_
_symmetry_equiv_pos_site_id
_symmetry_equiv_pos_as_xyz
1 x,y,z
_cell_length_a                   9.50554
_cell_length_b                   9.96384
_cell_length_c                   11.06465
_cell_angle_alpha                88.6792
_cell_angle_beta                 76.2232
_cell_angle_gamma                73.8192
loop_
_atom_site_label
_atom_site_type_symbol
_atom_site_fract_x
_atom_site_fract_y
_atom_site_fract_z
     1  I          0.20381915       0.06573213       0.21062512
     2  I          0.79618085       0.93426787       0.78937488
     3  O          0.64155140       0.38361140       0.38296120
     4  O          0.35844860       0.61638860       0.61703880
     5  H          0.64630000       0.39030000       0.45181700
     6  H          0.35370000       0.60970000       0.54818300
     7  C          0.50575190       0.34663180       0.38581160
     8  C          0.49424810       0.65336820       0.61418840
     9  H          0.44910000       0.35120000       0.47490000
    10  H          0.55090000       0.64880000       0.52510000
    11  C          0.40395190       0.44858180       0.31629160
    12  C          0.59604810       0.55141820       0.68370840
    13  H          0.30650000       0.42350000       0.33450000
    14  H          0.69350000       0.57650000       0.66550000
    15  N          0.36796180       0.59184170       0.36834150
    16  N          0.63203820       0.40815830       0.63165850
    17  H          0.29620000       0.64020000       0.33820000
    18  H          0.70380000       0.35980000       0.66180000
    19  H          0.44220000       0.62230000       0.34020000
    20  H          0.55780000       0.37770000       0.65980000
    21  O          0.58522140       0.49621140       0.13332120
    22  O          0.41477860       0.50378860       0.86667880
    23  H          0.55730000       0.56420000       0.09820000
    24  H          0.44270000       0.43580000       0.90180000
    25  C          0.46222000       0.43701190       0.17380160
    26  C          0.53778000       0.56298810       0.82619840
    27  H          0.37770000       0.49240000       0.13810000
    28  H          0.62230000       0.50760000       0.86190000
    29  N          0.56202000       0.27818180      -0.01117150
    30  N          0.43798000       0.72181820       0.01117150
    31  H          0.64820000       0.29430000       0.97370000
    32  H          0.35180000       0.70570000       0.02630000
    33  H          0.56930000       0.19620000       0.96380000
    34  H          0.43070000       0.80380000       0.03620000
    35  C          0.50232000       0.28528190       0.12476170
    36  C          0.49768000       0.71471810       0.87523830
    37  H          0.40500000       0.26000000       0.13980000
    38  H          0.59500000       0.74000000       0.86020000
    39  O          0.75617150       0.18813140       0.15854130
    40  O          0.24382850       0.81186860       0.84145870
    41  H          0.81230000       0.11320000       0.14120000
    42  H          0.18770000       0.88680000       0.85880000
    43  C          0.60452000       0.17862190       0.19222170
    44  C          0.39548000       0.82137810       0.80777830
    45  H          0.60600000       0.08290000       0.16560000
    46  H          0.39400000       0.91710000       0.83440000
    47  N          0.63172000       0.10148170       0.40572160
    48  N          0.36828000       0.89851830       0.59427840
    49  H          0.63630000       0.02020000       0.38620000
    50  H          0.36370000       0.97980000       0.61380000
    51  H          0.71720000       0.11230000       0.38520000
    52  H          0.28280000       0.88770000       0.61480000
    53  C          0.53872000       0.19746190       0.33406170
    54  C          0.46128000       0.80253810       0.66593830
    55  H          0.43980000       0.17510000       0.35090000
    56  H          0.56020000       0.82490000       0.64910000
    57  C          0.10032190       0.43102180       0.64886160
    58  C          0.89967810       0.56897820       0.35113840
    59  H          0.16020000       0.47570000       0.58160000
    60  H          0.83980000       0.52430000       0.41840000
    61  O          0.94671860       0.51209140       0.67454120
    62  O          0.05328140       0.48790860       0.32545880
    63  H          0.94170000       0.57020000       0.62620000
    64  H          0.05830000       0.42980000       0.37380000
    65  C          0.11872000       0.28126190       0.60370160
    66  C          0.88128000       0.71873810       0.39629840
    67  H          0.22930000       0.23590000       0.57190000
    68  H          0.77070000       0.76410000       0.42810000
    69  N          0.04972000       0.28791180       0.49770150
    70  N          0.95028000       0.71208820       0.50229850
    71  H          0.08330000       0.21120000       0.45520000
    72  H          0.91670000       0.78880000       0.54480000
    73  H          0.95580000       0.30130000       0.52520000
    74  H          0.04420000       0.69870000       0.47480000
    75  C          0.05942000       0.19168190       0.70739160
    76  C          0.94058000       0.80831810       0.29260840
    77  H          0.08950000       0.09270000       0.67400000
    78  H          0.91050000       0.90730000       0.32600000
    79  O          0.89728850       0.24039140       0.74419130
    80  O          0.10271150       0.75960860       0.25580870
    81  H          0.86870000       0.17420000       0.75620000
    82  H          0.13130000       0.82580000       0.24380000
    83  C          0.12742000       0.19585180       0.81908160
    84  C          0.87258000       0.80414820       0.18091840
    85  H          0.23940000       0.15970000       0.78800000
    86  H          0.76060000       0.84030000       0.21200000
    87  N          0.08031190       0.09875170       0.91106150
    88  N          0.91968810       0.90124830       0.08893850
    89  H          0.98768100       0.12230000       0.93220000
    90  H          0.01231900       0.87770000       0.06780000
    91  H          0.10930000       0.09930000       0.97631900
    92  H          0.89070000       0.90070000       0.02368100
    93  C          0.09355190       0.34655180       0.87005160
    94  C          0.90644810       0.65344820       0.12994840
    95  H          0.14810000       0.34320000       0.93750000
    96  H          0.85190000       0.65680000       0.06250000
    97  O          0.93624850       0.41057140       0.92356120
    98  O          0.06375150       0.58942860       0.07643880
    99  H          0.89270000       0.40030000       0.87520000
   100  H          0.10730000       0.59970000       0.12480000
   101  C          0.15941190       0.43154180       0.76631160
   102  C          0.84058810       0.56845820       0.23368840
   103  H          0.27150000       0.39030000       0.74270000
   104  H          0.72850000       0.60970000       0.25730000
   105  N          0.12659180       0.57976160       0.81046150
   106  N          0.87340820       0.42023840       0.18953850
   107  H          0.03920000       0.62420000       0.80620000
   108  H          0.96080000       0.37580000       0.19380000
   109  H          0.18720000       0.61820000       0.76520000
   110  H          0.81280000       0.38180000       0.23480000
   111  H          0.13230000       0.58530000       0.88591700
   112  H          0.86770000       0.41470000       0.11408300
   113  O          0.48946170       0.14963160       0.65979150
   114  O          0.51053830       0.85036840       0.34020850
   115  H          0.55030000       0.11130000       0.69630000
   116  H          0.44970000       0.88870000       0.30370000
   117  H          0.53530000       0.13230000       0.58771800
   118  H          0.46470000       0.86770000       0.41228200
