data_MOFFUI
_symmetry_space_group_name_H-M    'P1'
_symmetry_Int_Tables_number       1
loop_
_symmetry_equiv_pos_site_id
_symmetry_equiv_pos_as_xyz
1 x,y,z
_cell_length_a                   6.12505
_cell_length_b                   6.40815
_cell_length_c                   12.401811
_cell_angle_alpha                103.5167
_cell_angle_beta                 94.3556
_cell_angle_gamma                101.4276
loop_
_atom_site_label
_atom_site_type_symbol
_atom_site_fract_x
_atom_site_fract_y
_atom_site_fract_z
     1  I          0.38025200       0.42216200       0.19719511
     2  I          0.61974800       0.57783800       0.80280489
     3  C          0.15013000       0.16913000       0.08157160
     4  C          0.84987000       0.83087000       0.91842840
     5  C          0.94876000       0.20093000       0.03774180
     6  C          0.05124000       0.79907000       0.96225820
     7  C          0.19743000       0.96396000       0.04262170
     8  C          0.80257000       0.03604000       0.95737830
     9  F          0.89007000       0.39332000       0.07339130
    10  F          0.10993000       0.60668000       0.92660870
    11  F          0.38952000       0.92217000       0.08339130
    12  F          0.61048000       0.07783000       0.91660870
    13  C          0.62393000       0.88213000       0.42421170
    14  C          0.37607000       0.11787000       0.57578830
    15  C          0.59514000       0.83964000       0.52770190
    16  C          0.40486000       0.16036000       0.47229810
    17  H          0.65850000       0.73250000       0.55130000
    18  H          0.34150000       0.26750000       0.44870000
    19  C          0.52624000       0.04574000       0.39881190
    20  C          0.47376000       0.95426000       0.60118810
    21  H          0.53860000       0.07750000       0.32730000
    22  H          0.46140000       0.92250000       0.67270000
    23  N          0.74003000       0.76123000       0.34672160
    24  N          0.25997000       0.23877000       0.65327840
    25  C          0.87975000       0.63155000       0.38963000
    26  C          0.12025000       0.36845000       0.61037000
    27  H          0.94560000       0.54860000       0.32530000
    28  H          0.05440000       0.45140000       0.67470000
    29  H         -0.00430000       0.71570000       0.44640000
    30  H          0.00430000       0.28430000       0.55360000
    31  H          0.78360000       0.51060000       0.42330000
    32  H          0.21640000       0.48940000       0.57670000
    33  C          0.84815000       0.87495000       0.26882000
    34  C          0.15185000       0.12505000       0.73118000
    35  H          0.92760000       0.78660000       0.22530000
    36  H          0.07240000       0.21340000       0.77470000
    37  H          0.73860000       0.91960000       0.21930000
    38  H          0.26140000       0.08040000       0.78070000
    39  H          0.94570000       0.01170000       0.30730000
    40  H          0.05430000      -0.01170000       0.69270000
