data_MOKQUZ
_symmetry_space_group_name_H-M    'P1'
_symmetry_Int_Tables_number       1
loop_
_symmetry_equiv_pos_site_id
_symmetry_equiv_pos_as_xyz
1 x,y,z
_cell_length_a                   8.670713
_cell_length_b                   10.971417
_cell_length_c                   11.201317
_cell_angle_alpha                80.8012
_cell_angle_beta                 69.6962
_cell_angle_gamma                77.6632
loop_
_atom_site_label
_atom_site_type_symbol
_atom_site_fract_x
_atom_site_fract_y
_atom_site_fract_z
     1  O          0.47679180       0.96437130       0.82290860
     2  O          0.52320820       0.03562870       0.17709140
     3  H          0.54530000       0.98150000       0.75360000
     4  H          0.45470000       0.01850000       0.24640000
     5  O          0.67122000       0.79683170       0.82773840
     6  O          0.32878000       0.20316830       0.17226160
     7  O          0.27415180       0.75636140       0.27577130
     8  O          0.72584820       0.24363860       0.72422870
     9  O          0.45071180       0.57475130       0.26650130
    10  O          0.54928820       0.42524870       0.73349870
    11  H          0.38670000       0.56010000       0.33870000
    12  H          0.61330000       0.43990000       0.66130000
    13  C          0.53692000       0.85814190       0.87693810
    14  C          0.46308000       0.14185810       0.12306190
    15  C          0.41652000       0.81888180       0.00741180
    16  C          0.58348000       0.18111820      -0.00741180
    17  H          0.36820000       0.89310000       0.05500000
    18  H          0.63180000       0.10690000       0.94500000
    19  C          0.27502000       0.77139170      -0.01329170
    20  C          0.72498000       0.22860830       0.01329170
    21  C          0.11202000       0.83595190       0.02700190
    22  C          0.88798000       0.16404810       0.97299810
    23  H          0.08810000       0.90740000       0.06940000
    24  H          0.91190000       0.09260000       0.93060000
    25  C          0.98457000       0.79482000       0.00462000
    26  C          0.01543000       0.20518000      -0.00462000
    27  H          0.87640000       0.83940000       0.03160000
    28  H          0.12360000       0.16060000       0.96840000
    29  C          0.01693000       0.68832000       0.94268000
    30  C          0.98307000       0.31168000       0.05732000
    31  H          0.93120000       0.66120000       0.92770000
    32  H          0.06880000       0.33880000       0.07230000
    33  C          0.17893000       0.62202000       0.90298000
    34  C          0.82107000       0.37798000       0.09702000
    35  H          0.20180000       0.54980000       0.86190000
    36  H          0.79820000       0.45020000       0.13810000
    37  C          0.30643000       0.66335190       0.92457810
    38  C          0.69357000       0.33664810       0.07542190
    39  H          0.41450000       0.61860000       0.89740000
    40  H          0.58550000       0.38140000       0.10260000
    41  C          0.50862000       0.72122000       0.08432180
    42  C          0.49138000       0.27878000       0.91567820
    43  H          0.55410000       0.64620000       0.03960000
    44  H          0.44590000       0.35380000       0.96040000
    45  H          0.60130000       0.75380000       0.08990000
    46  H          0.39870000       0.24620000       0.91010000
    47  C          0.39682000       0.68718190       0.21791180
    48  C          0.60318000       0.31281810       0.78208820
    49  N          0.25012000       0.51408150       0.50443150
    50  N          0.74988000       0.48591850       0.49556850
    51  N          0.66326190       0.01005140       0.57849150
    52  N          0.33673810      -0.01005140       0.42150850
    53  C          0.11063000       0.59662000       0.55362000
    54  C          0.88937000       0.40338000       0.44638000
    55  H          0.09950000       0.67640000       0.51100000
    56  H          0.90050000       0.32360000       0.48900000
    57  C          0.98317000       0.56952000       0.66352000
    58  C          0.01683000       0.43048000       0.33648000
    59  H          0.88920000       0.62950000       0.69470000
    60  H          0.11080000       0.37050000       0.30530000
    61  C         -0.00073000       0.45072000       0.72602000
    62  C          0.00073000       0.54928000       0.27398000
    63  H          0.91550000       0.42890000       0.79990000
    64  H          0.08450000       0.57110000       0.20010000
    65  C          0.14103000       0.36492000       0.67742000
    66  C          0.85897000       0.63508000       0.32258000
    67  H          0.15310000       0.28460000       0.71870000
    68  H          0.84690000       0.71540000       0.28130000
    69  C          0.26632000       0.39814180       0.56644180
    70  C          0.73368000       0.60185820       0.43355820
    71  C          0.42163000       0.31193190       0.50892000
    72  C          0.57837000       0.68806810       0.49108000
    73  H          0.48940000       0.33860000       0.42840000
    74  H          0.51060000       0.66140000       0.57160000
    75  C          0.47452000       0.20028180       0.56004190
    76  C          0.52548000       0.79971820       0.43995810
    77  H          0.40710000       0.17420000       0.64090000
    78  H          0.59290000       0.82580000       0.35910000
    79  C          0.62792000       0.11358180       0.50279180
    80  C          0.37208000       0.88641820       0.49720820
    81  C          0.73393000       0.13342000       0.37752000
    82  C          0.26607000       0.86658000       0.62248000
    83  H          0.70900000       0.20460000       0.32560000
    84  H          0.29100000       0.79540000       0.67440000
    85  C          0.87613000       0.04642000       0.33132000
    86  C          0.12387000       0.95358000       0.66868000
    87  H          0.94800000       0.05950000       0.24850000
    88  H          0.05200000       0.94050000       0.75150000
    89  C          0.91083000       0.94128000       0.40752000
    90  C          0.08917000       0.05872000       0.59248000
    91  H          0.00500000       0.88130000       0.37750000
    92  H         -0.00500000       0.11870000       0.62250000
    93  C          0.80173000       0.92677810       0.53042000
    94  C          0.19827000       0.07322190       0.46958000
    95  H          0.82520000       0.85550000       0.58270000
    96  H          0.17480000       0.14450000       0.41730000
