data_MOMVOA
_symmetry_space_group_name_H-M    'P1'
_symmetry_Int_Tables_number       1
loop_
_symmetry_equiv_pos_site_id
_symmetry_equiv_pos_as_xyz
1 x,y,z
_cell_length_a                   11.799312
_cell_length_b                   13.303414
_cell_length_c                   13.604715
_cell_angle_alpha                112.4982
_cell_angle_beta                 91.4572
_cell_angle_gamma                91.7972
loop_
_atom_site_label
_atom_site_type_symbol
_atom_site_fract_x
_atom_site_fract_y
_atom_site_fract_z
     1  Br         0.72724600       0.28559500       0.66452500
     2  C          0.63004000       0.15875000       0.60454000
     3  C          0.63624000       0.09535000       0.49945000
     4  H          0.68800000       0.11410000       0.45810000
     5  C          0.56544000       0.00254000       0.45345000
     6  H          0.57070000       0.95720000       0.38220000
     7  C          0.48634000       0.97876000       0.51654000
     8  C          0.48075000       0.04355000       0.62265000
     9  H          0.42760000       0.02680000       0.66410000
    10  C          0.55445000       0.13315000       0.66745000
    11  H          0.55280000       0.17600000       0.73960000
    12  C          0.30204000       0.90147000       0.36894000
    13  H          0.34870000       0.91050000       0.31490000
    14  H          0.24780000       0.84140000       0.33290000
    15  C          0.23583000       0.00543000       0.42003000
    16  H          0.27860000       0.05170000       0.48520000
    17  C          0.23173000       0.06773000       0.34703000
    18  C          0.33243000       0.11983000       0.33294000
    19  H          0.39890000       0.11720000       0.37000000
    20  C          0.33363000       0.17493000       0.26464000
    21  C          0.23554000       0.17733000       0.20784000
    22  C          0.13654000       0.12573000       0.22094000
    23  H          0.07060000       0.12730000       0.18260000
    24  C          0.13393000       0.07133000       0.29063000
    25  C          0.02363000       0.01824000       0.30644000
    26  H          0.97550000       0.07390000       0.35140000
    27  H          0.98360000       0.98110000       0.23820000
    28  C          0.04683000       0.93737000       0.35754000
    29  H          0.97530000       0.91400000       0.37730000
    30  H          0.07920000       0.87380000       0.30520000
    31  C          0.52844000       0.22915000       0.30566000
    32  H          0.58730000       0.26940000       0.28710000
    33  H          0.55030000       0.15550000       0.28800000
    34  H          0.51680000       0.26250000       0.38060000
    35  C          0.14585000       0.23825000       0.08245000
    36  H          0.16440000       0.27740000       0.03820000
    37  H          0.08920000       0.27560000       0.13090000
    38  H          0.11700000       0.16610000       0.03860000
    39  C          0.08074000       0.07454000       0.54024000
    40  H          0.08490000       0.13800000       0.52030000
    41  C          0.95585000       0.05366000       0.56216000
    42  H          0.90950000       0.03760000       0.49850000
    43  H          0.92970000       0.11730000       0.61760000
    44  H          0.95090000      -0.00690000       0.58390000
    45  C          0.15194000       0.09994000       0.64114000
    46  C          0.16456000       0.02155000       0.68475000
    47  H          0.13200000       0.95200000       0.64880000
    48  C          0.22337000       0.04468000       0.77866000
    49  H          0.22890000      -0.00900000       0.80640000
    50  C          0.27368000       0.14419000       0.83216000
    51  H          0.31490000       0.15820000       0.89550000
    52  C          0.26347000       0.22397000       0.79276000
    53  H          0.29720000       0.29270000       0.82940000
    54  C          0.20176000       0.20145000       0.69645000
    55  H          0.19460000       0.25580000       0.66990000
    56  N          0.12363000       0.97977000       0.45203000
    57  O          0.45543000       0.77447000       0.38964000
    58  O          0.32713000       0.85017000       0.53793000
    59  O          0.42713000       0.22913000       0.24873000
    60  O          0.24523000       0.23143000       0.14113000
    61  S          0.39124100       0.86399100       0.45592110
    62  Br         0.33400500       0.37969500       0.55470500
    63  C          0.25954000       0.43534000       0.46284000
    64  C          0.30914000       0.52364000       0.44715000
    65  H          0.37840000       0.55480000       0.48080000
    66  C          0.25424000       0.56424000       0.38074000
    67  H          0.28680000       0.62260000       0.36830000
    68  C          0.15013000       0.51783000       0.33224000
    69  C          0.10203000       0.42923000       0.34774000
    70  H          0.03230000       0.39830000       0.31480000
    71  C          0.15854000       0.38664000       0.41294000
    72  H          0.12810000       0.32580000       0.42250000
    73  C         -0.00136000       0.68163000       0.35383000
    74  H          0.05310000       0.73440000       0.40260000
    75  H          0.95550000       0.71900000       0.31760000
    76  C          0.91663000       0.64253000       0.41953000
    77  H          0.93850000       0.56960000       0.41210000
    78  C          0.92953000       0.71523000       0.53793000
    79  C          0.02633000       0.70733000       0.59534000
    80  H          0.08180000       0.66000000       0.56020000
    81  C          0.04134000       0.76794000       0.70224000
    82  C          0.95604000       0.83924000       0.75524000
    83  C          0.86184000       0.84744000       0.69834000
    84  H          0.80600000       0.89440000       0.73320000
    85  C          0.84784000       0.78683000       0.58943000
    86  C          0.74344000       0.79944000       0.52784000
    87  H          0.67680000       0.77080000       0.55050000
    88  H          0.73370000       0.87620000       0.54410000
    89  C          0.75283000       0.74043000       0.40824000
    90  H          0.67790000       0.73340000       0.37450000
    91  H          0.80060000       0.78480000       0.38230000
    92  C          0.22775000       0.70755000       0.71035000
    93  H          0.28690000       0.71150000       0.76160000
    94  H          0.25530000       0.73920000       0.66240000
    95  H          0.20430000       0.63270000       0.67080000
    96  C          0.89086000       0.96086000       0.92135000
    97  H          0.91500000      -0.00600000      -0.00490000
    98  H          0.82290000       0.91640000       0.91410000
    99  H          0.87600000       0.01640000       0.89450000
   100  C          0.73093000       0.55563000       0.40944000
   101  H          0.73470000       0.58220000       0.48730000
   102  C          0.60694000       0.54944000       0.37065000
   103  H          0.57700000       0.62080000       0.39910000
   104  H          0.56330000       0.50140000       0.39430000
   105  H          0.60260000       0.52230000       0.29430000
   106  C          0.77603000       0.44193000       0.36393000
   107  C          0.78653000       0.38783000       0.25504000
   108  H          0.77100000       0.42310000       0.20930000
   109  C          0.82024000       0.28104000       0.21434000
   110  H          0.82730000       0.24540000       0.14130000
   111  C          0.84284000       0.22804000       0.27995000
   112  H          0.86360000       0.15590000       0.25150000
   113  C          0.83494000       0.28094000       0.38875000
   114  H          0.85170000       0.24550000       0.43410000
   115  C          0.80174000       0.38744000       0.42894000
   116  H          0.79660000       0.42330000       0.50210000
   117  N          0.79923000       0.63143000       0.37513000
   118  O         -0.00397000       0.49863000       0.18563000
   119  O          0.15493000       0.63303000       0.21533000
   120  O          0.13363000       0.76553000       0.76403000
   121  O          0.97743000       0.89493000       0.86253000
   122  S          0.07446900       0.57885900       0.25766900
   123  Br         0.03075600       0.44361600       0.66458600
   124  C          0.96134000       0.52984000       0.79104000
   125  C         -0.00276000       0.52855000       0.88665000
   126  H          0.05740000       0.48630000       0.88990000
   127  C          0.94474000       0.58935000       0.97785000
   128  H          0.96920000       0.58840000       0.04300000
   129  C          0.85474000       0.65244000       0.97244000
   130  C          0.81894000       0.65424000       0.87634000
   131  H          0.75870000       0.69630000       0.87290000
   132  C          0.87334000       0.59264000       0.78354000
   133  H          0.85050000       0.59400000       0.71810000
   134  C          0.69954000       0.63204000       0.11744000
   135  H          0.74940000       0.58760000       0.13990000
   136  H          0.65330000       0.67090000       0.17700000
   137  C          0.62053000       0.55594000       0.02524000
   138  H          0.64850000       0.55910000       0.95920000
   139  C          0.62643000       0.43824000       0.01573000
   140  C          0.72284000       0.38054000       0.97224000
   141  H          0.78220000       0.41550000       0.95240000
   142  C          0.73074000       0.27304000       0.95854000
   143  C          0.64374000       0.22104000      -0.01056000
   144  C          0.55004000       0.27674000       0.03394000
   145  H          0.49220000       0.24170000       0.05560000
   146  C          0.54034000       0.38724000       0.04734000
   147  C          0.43514000       0.44584000       0.09424000
   148  H          0.41950000       0.43500000       0.15930000
   149  H          0.37100000       0.41490000       0.04450000
   150  C          0.44824000       0.56674000       0.11864000
   151  H          0.37350000       0.59680000       0.12850000
   152  H          0.49170000       0.60140000       0.18530000
   153  C          0.92084000       0.26525000       0.89806000
   154  H          0.97830000       0.21360000       0.86950000
   155  H          0.94910000       0.32120000       0.96350000
   156  H          0.90100000       0.29720000       0.84790000
   157  C          0.58279000       0.06206000       0.01559000
   158  H          0.60490000      -0.01100000       0.00050000
   159  H          0.50930000       0.06020000       0.98260000
   160  H          0.57950000       0.10050000       0.09110000
   161  C          0.44284000       0.54924000       0.93084000
   162  H          0.45120000       0.47020000       0.90010000
   163  C          0.31704000       0.57076000       0.93916000
   164  H          0.28410000       0.53970000       0.98560000
   165  H          0.28010000       0.53820000       0.86980000
   166  H          0.30710000       0.64780000       0.96730000
   167  C          0.49424000       0.59734000       0.85684000
   168  C          0.50005000       0.70845000       0.88405000
   169  H          0.47810000       0.75540000       0.95050000
   170  C          0.53926000       0.74918000       0.81057000
   171  H          0.54130000       0.82380000       0.82750000
   172  C          0.57437000       0.68211200       0.71477000
   173  H          0.60050000       0.71060000       0.66640000
   174  C          0.57087000       0.57221000       0.68946000
   175  H          0.59560000       0.52550000       0.62390000
   176  C          0.53155000       0.53146000       0.75954000
   177  H          0.52960000       0.45650000       0.74130000
   178  N          0.50393000       0.59413000       0.03613000
   179  O          0.86763000       0.77533000       0.17463000
   180  O          0.71333000       0.80023000       0.06113000
   181  O          0.82353000       0.21153000       0.91744000
   182  O          0.66164000       0.11493000       0.97544000
   183  S          0.78428100       0.72903900       0.08818900
   184  C          0.13046000       0.82096000       0.04726000
   185  H          0.12390000       0.78290000       0.09440000
   186  H          0.11710000       0.77040000       0.97500000
   187  H          0.07540000       0.87610000       0.06410000
   188  C          0.24415000       0.87145000       0.05964000
   189  C          0.27126000       0.93355000      -0.00855000
   190  H          0.34820000       0.96230000       0.00680000
   191  H          0.22080000      -0.00780000       0.00600000
   192  H          0.26230000       0.88580000       0.91780000
   193  O          0.31585000       0.85865000       0.11704000
   194  O          0.54165000       0.93385000       0.19274000
