data_MOPSOB
_symmetry_space_group_name_H-M    'P1'
_symmetry_Int_Tables_number       1
loop_
_symmetry_equiv_pos_site_id
_symmetry_equiv_pos_as_xyz
1 x,y,z
_cell_length_a                   15.01807
_cell_length_b                   6.08793
_cell_length_c                   10.20255
_cell_angle_alpha                90.0
_cell_angle_beta                 109.0455
_cell_angle_gamma                90.0
loop_
_atom_site_label
_atom_site_type_symbol
_atom_site_fract_x
_atom_site_fract_y
_atom_site_fract_z
     1  S          0.15182400       0.56186900       0.05168500
     2  S          0.84817600       0.06186900       0.44831500
     3  S          0.84817600       0.43813100       0.94831500
     4  S          0.15182400       0.93813100       0.55168500
     5  S          0.28758400       0.63517120       0.09030700
     6  S          0.71241600       0.13517120       0.40969300
     7  S          0.71241600       0.36482880       0.90969300
     8  S          0.28758400       0.86482880       0.59030700
     9  O          0.11291140       0.49884000       0.90603820
    10  O          0.88708860      -0.00116000       0.59396180
    11  O          0.88708860       0.50116000       0.09396180
    12  O          0.11291140       0.00116000       0.40603820
    13  O          0.10381130       0.75563000       0.07952000
    14  O          0.89618870       0.25563000       0.42048000
    15  O          0.89618870       0.24437000       0.92048000
    16  O          0.10381130       0.74437000       0.57952000
    17  O          0.14261140       0.38144000       0.13982000
    18  O          0.85738860       0.88144000       0.36018000
    19  O          0.85738860       0.61856000       0.86018000
    20  O          0.14261140       0.11856000       0.63982000
    21  N          0.27063130       0.05473000       0.27662000
    22  N          0.72936870       0.55473000       0.22338000
    23  N          0.72936870       0.94527000       0.72338000
    24  N          0.27063130       0.44527000       0.77662000
    25  H          0.26090000       0.94870000       0.21340000
    26  H          0.73910000       0.44870000       0.28660000
    27  H          0.73910000       0.05130000       0.78660000
    28  H          0.26090000       0.55130000       0.71340000
    29  H          0.23120000       0.16550000       0.24230000
    30  H          0.76880000       0.66550000       0.25770000
    31  H          0.76880000       0.83450000       0.75770000
    32  H          0.23120000       0.33450000       0.74230000
    33  H          0.26070000       0.00250000       0.35210000
    34  H          0.73930000       0.50250000       0.14790000
    35  H          0.73930000      -0.00250000       0.64790000
    36  H          0.26070000       0.49750000       0.85210000
    37  C          0.48617170       0.41575000       0.44243000
    38  C          0.51382830       0.91575000       0.05757000
    39  C          0.51382830       0.58425000       0.55757000
    40  C          0.48617170       0.08425000       0.94243000
    41  H          0.53340000       0.30060000       0.46340000
    42  H          0.46660000       0.80060000       0.03660000
    43  H          0.46660000       0.69940000       0.53660000
    44  H          0.53340000       0.19940000       0.96340000
    45  H          0.48580000       0.48540000       0.35670000
    46  H          0.51420000      -0.01460000       0.14330000
    47  H          0.51420000       0.51460000       0.64330000
    48  H          0.48580000       0.01460000       0.85670000
    49  C          0.36941160       0.13404000       0.31332000
    50  C          0.63058840       0.63404000       0.18668000
    51  C          0.63058840       0.86596000       0.68668000
    52  C          0.36941160       0.36596000       0.81332000
    53  H          0.38020000       0.18910000       0.23060000
    54  H          0.61980000       0.68910000       0.26940000
    55  H          0.61980000       0.81090000       0.76940000
    56  H          0.38020000       0.31090000       0.73060000
    57  H          0.41210000       0.01200000       0.34840000
    58  H          0.58790000       0.51200000       0.15160000
    59  H          0.58790000      -0.01200000       0.65160000
    60  H          0.41210000       0.48800000       0.84840000
    61  C          0.39054170       0.31254000       0.42062000
    62  C          0.60945830       0.81254000       0.07938000
    63  C          0.60945830       0.68746000       0.57938000
    64  C          0.39054170       0.18746000       0.92062000
    65  H          0.38890000       0.25190000       0.50760000
    66  H          0.61110000       0.75190000      -0.00760000
    67  H          0.61110000       0.74810000       0.49240000
    68  H          0.38890000       0.24810000       0.00760000
    69  H          0.34230000       0.42500000       0.39160000
    70  H          0.65770000       0.92500000       0.10840000
    71  H          0.65770000       0.57500000       0.60840000
    72  H          0.34230000       0.07500000       0.89160000
    73  N          0.04959170       0.45054000       0.34503000
    74  N          0.95040830       0.95054000       0.15497000
    75  N          0.95040830       0.54946000       0.65497000
    76  N          0.04959170       0.04946000       0.84503000
    77  H         -0.01061400       0.45760000       0.30030000
    78  H          0.01061400       0.95760000       0.19970000
    79  H          0.01061400       0.54240000       0.69970000
    80  H         -0.01061400       0.04240000       0.80030000
    81  H          0.06520000       0.54740000       0.41130000
    82  H          0.93480000       0.04740000       0.08870000
    83  H          0.93480000       0.45260000       0.58870000
    84  H          0.06520000       0.95260000       0.91130000
    85  H          0.07330000       0.33450000       0.39440000
    86  H          0.92670000       0.83450000       0.10560000
    87  H          0.92670000       0.66550000       0.60560000
    88  H          0.07330000       0.16550000       0.89440000
    89  H          0.07720000       0.46760000       0.28330000
    90  H          0.92280000       0.96760000       0.21670000
    91  H          0.92280000       0.53240000       0.71670000
    92  H          0.07720000       0.03240000       0.78330000
