data_MOPYAR
_symmetry_space_group_name_H-M    'P1'
_symmetry_Int_Tables_number       1
loop_
_symmetry_equiv_pos_site_id
_symmetry_equiv_pos_as_xyz
1 x,y,z
_cell_length_a                   10.81524
_cell_length_b                   11.98891
_cell_length_c                   7.45292
_cell_angle_alpha                90.0
_cell_angle_beta                 94.2822
_cell_angle_gamma                90.0
loop_
_atom_site_label
_atom_site_type_symbol
_atom_site_fract_x
_atom_site_fract_y
_atom_site_fract_z
     1  N          0.46923140       0.46144140       0.21602000
     2  N          0.53076860       0.96144140       0.28398000
     3  N          0.53076860       0.53855860       0.78398000
     4  N          0.46923140       0.03855860       0.71602000
     5  N          0.46325150       0.26981130       0.23152000
     6  N          0.53674850       0.76981130       0.26848000
     7  N          0.53674850       0.73018870       0.76848000
     8  N          0.46325150       0.23018870       0.73152000
     9  N          0.62390150       0.36606130       0.38402000
    10  N          0.37609850       0.86606130       0.11598000
    11  N          0.37609850       0.63393870       0.61598000
    12  N          0.62390150       0.13393870       0.88402000
    13  O          0.31325130       0.36538110       0.06672000
    14  O          0.68674870       0.86538110       0.43328000
    15  O          0.68674870       0.63461890       0.93328000
    16  O          0.31325130       0.13461890       0.56672000
    17  O          0.61916120       0.17716110       0.38892000
    18  O          0.38083880       0.67716110       0.11108000
    19  O          0.38083880       0.82283890       0.61108000
    20  O          0.61916120       0.32283890       0.88892000
    21  O          0.62194110       0.55489100       0.37962000
    22  O          0.37805890       0.05489100       0.12038000
    23  O          0.37805890       0.44510900       0.62038000
    24  O          0.62194110       0.94510900       0.87962000
    25  C          0.40802000       0.36552000       0.16393000
    26  C          0.59198000       0.86552000       0.33607000
    27  C          0.59198000       0.63448000       0.83607000
    28  C          0.40802000       0.13448000       0.66393000
    29  C          0.57182000       0.26572000       0.33683000
    30  C          0.42818000       0.76572000       0.16317000
    31  C          0.42818000       0.73428000       0.66317000
    32  C          0.57182000       0.23428000       0.83683000
    33  C          0.57472000       0.46652000       0.32913000
    34  C          0.42528000       0.96652000       0.17087000
    35  C          0.42528000       0.53348000       0.67087000
    36  C          0.57472000       0.03348000       0.82913000
    37  H          0.43881700       0.52411700       0.18632600
    38  H          0.56118300       0.02411700       0.31367400
    39  H          0.56118300       0.47588300       0.81367400
    40  H          0.43881700       0.97588300       0.68632600
    41  H          0.43051800       0.20431800       0.20432700
    42  H          0.56948200       0.70431800       0.29567300
    43  H          0.56948200       0.79568200       0.79567300
    44  H          0.43051800       0.29568200       0.70432700
    45  H          0.70002300       0.36671800       0.46073300
    46  H          0.29997700       0.86671800       0.03926700
    47  H          0.29997700       0.63328200       0.53926700
    48  H          0.70002300       0.13328200       0.96073300
    49  N          0.84762000       0.37005140       0.58202000
    50  N          0.15238000       0.87005140       0.91798000
    51  N          0.15238000       0.62994860       0.41798000
    52  N          0.84762000       0.12994860       0.08202000
    53  C          0.92972000       0.29112000       0.55463000
    54  C          0.07028000       0.79112000       0.94537000
    55  C          0.07028000       0.70888000       0.44537000
    56  C          0.92972000       0.20888000       0.05463000
    57  C          0.08873000       0.38403000       0.72414000
    58  C          0.91127000       0.88403000       0.77586000
    59  C          0.91127000       0.61597000       0.27586000
    60  C          0.08873000       0.11597000       0.22414000
    61  C          0.00573000       0.46643000       0.75464000
    62  C         -0.00573000       0.96643000       0.74536000
    63  C         -0.00573000       0.53357000       0.24536000
    64  C          0.00573000       0.03357000       0.25464000
    65  C          0.88612000       0.45682000       0.68113000
    66  C          0.11388000       0.95682000       0.81887000
    67  C          0.11388000       0.54318000       0.31887000
    68  C          0.88612000       0.04318000       0.18113000
    69  C          0.04982000       0.29493000       0.62194000
    70  C          0.95018000       0.79493000       0.87806000
    71  C          0.95018000       0.70507000       0.37806000
    72  C          0.04982000       0.20507000       0.12194000
    73  H          0.82652100       0.51382000       0.69673100
    74  H          0.17347900       0.01382000       0.80326900
    75  H          0.17347900       0.48618000       0.30326900
    76  H          0.82652100       0.98618000       0.19673100
    77  H          0.16563000       0.39242300       0.77004000
    78  H          0.83437000       0.89242300       0.72996000
    79  H          0.83437000       0.60757700       0.22996000
    80  H          0.16563000       0.10757700       0.27004000
    81  H          0.89872100       0.22531900       0.48143200
    82  H          0.10127900       0.72531900       0.01856800
    83  H          0.10127900       0.77468100       0.51856800
    84  H          0.89872100       0.27468100      -0.01856800
    85  H          0.02432400       0.52562400       0.82153800
    86  H          0.97567600       0.02562400       0.67846200
    87  H          0.97567600       0.47437600       0.17846200
    88  H          0.02432400       0.97437600       0.32153800
    89  H          0.10612600       0.23222300       0.59614000
    90  H          0.89387400       0.73222300       0.90386000
    91  H          0.89387400       0.76777700       0.40386000
    92  H          0.10612600       0.26777700       0.09614000
