data_MOQGIJ
_symmetry_space_group_name_H-M    'P1'
_symmetry_Int_Tables_number       1
loop_
_symmetry_equiv_pos_site_id
_symmetry_equiv_pos_as_xyz
1 x,y,z
_cell_length_a                   8.95196
_cell_length_b                   10.56328
_cell_length_c                   12.34408
_cell_angle_alpha                69.1133
_cell_angle_beta                 80.6803
_cell_angle_gamma                77.4433
loop_
_atom_site_label
_atom_site_type_symbol
_atom_site_fract_x
_atom_site_fract_y
_atom_site_fract_z
     1  N          0.56417140       0.29011120       0.31287100
     2  N          0.43582860       0.70988880       0.68712900
     3  H          0.61730000       0.27720000       0.37081900
     4  H          0.38270000       0.72280000       0.62918100
     5  S          0.67375400       0.28079300       0.19336300
     6  S          0.32624600       0.71920700       0.80663700
     7  S          0.39647400       0.39012300       0.32074300
     8  S          0.60352600       0.60987700       0.67925700
     9  O          0.78891130       0.16274110       0.23609100
    10  O          0.21108870       0.83725890       0.76390900
    11  O          0.57719130       0.28740110       0.10926900
    12  O          0.42280870       0.71259890       0.89073100
    13  O          0.35012120       0.35039110       0.44319900
    14  O          0.64987880       0.64960890       0.55680100
    15  O          0.30023120       0.38069110       0.24302100
    16  O          0.69976880       0.61930890       0.75697900
    17  C          0.76082160       0.42820140       0.13959120
    18  C          0.23917840       0.57179860       0.86040880
    19  C          0.70174170       0.53993150       0.04774120
    20  C          0.29825830       0.46006850       0.95225880
    21  H          0.61750000       0.53540000       0.01210000
    22  H          0.38250000       0.46460000      -0.01210000
    23  C          0.76656180       0.65818160       0.00829130
    24  C          0.23343820       0.34181840      -0.00829130
    25  H          0.72670000       0.73580000       0.94600000
    26  H          0.27330000       0.26420000       0.05400000
    27  C          0.89024180       0.66149160       0.06095130
    28  C          0.10975820       0.33850840       0.93904870
    29  C          0.95143180       0.54944170       0.15200140
    30  C          0.04856820       0.45055830       0.84799860
    31  H          0.03700000       0.55350000       0.18650000
    32  H          0.96300000       0.44650000       0.81350000
    33  C          0.88596170       0.43219160       0.19158130
    34  C          0.11403830       0.56780840       0.80841870
    35  H          0.92600000       0.35470000       0.25390000
    36  H          0.07400000       0.64530000       0.74610000
    37  Cl         0.97150600       0.80926500       0.01125400
    38  Cl         0.02849400       0.19073500      -0.01125400
    39  C          0.43390160       0.55902140       0.27257120
    40  C          0.56609840       0.44097860       0.72742880
    41  C          0.36663170       0.65702150       0.17653120
    42  C          0.63336830       0.34297850       0.82346880
    43  H          0.30200000       0.63270000       0.13590000
    44  H          0.69800000       0.36730000       0.86410000
    45  C          0.39455190       0.79082150       0.14025130
    46  C          0.60544810       0.20917850       0.85974870
    47  H          0.34820000       0.85960000       0.07540000
    48  H          0.65180000       0.14040000       0.92460000
    49  C          0.49102000       0.82215150       0.20027130
    50  C          0.50898000       0.17784850       0.79972870
    51  C          0.56132000       0.72393160       0.29512140
    52  C          0.43868000       0.27606840       0.70487860
    53  H          0.62850000       0.74790000       0.33400000
    54  H          0.37150000       0.25210000       0.66600000
    55  C          0.53230180       0.59085150       0.33218130
    56  C          0.46769820       0.40914850       0.66781870
    57  H          0.57860000       0.52230000       0.39710000
    58  H          0.42140000       0.47770000       0.60290000
    59  Cl         0.52534700       0.98932400       0.15683400
    60  Cl         0.47465300       0.01067600       0.84316600
    61  O          0.73470120       0.26644100       0.47736900
    62  O          0.26529880       0.73355900       0.52263100
    63  N          0.92036140       0.20334130       0.59961110
    64  N          0.07963860       0.79665870       0.40038890
    65  N          0.77638140       0.04383120       0.59792110
    66  N          0.22361860       0.95616880       0.40207890
    67  C          0.80753160       0.17393140       0.55565120
    68  C          0.19246840       0.82606860       0.44434880
    69  C          0.96372000       0.33857170       0.54307150
    70  C          0.03628000       0.66142830       0.45692850
    71  H          0.95210000       0.36910000       0.45960000
    72  H          0.04790000       0.63090000       0.54040000
    73  H          0.07100000       0.33340000       0.55440000
    74  H          0.92900000       0.66660000       0.44560000
    75  H          0.89730000       0.40430000       0.57720000
    76  H          0.10270000       0.59570000       0.42280000
    77  C          0.96325190       0.13417170       0.71861140
    78  C          0.03674810       0.86582830       0.28138860
    79  H          0.89640000       0.06660000       0.76110000
    80  H          0.10360000       0.93340000       0.23890000
    81  H          0.95180000       0.20220000       0.75770000
    82  H          0.04820000       0.79780000       0.24230000
    83  H          0.07040000       0.08730000       0.71680000
    84  H          0.92960000       0.91270000       0.28320000
    85  C          0.64292190       0.01933160       0.55936140
    86  C          0.35707810       0.98066840       0.44063860
    87  H          0.55980000       0.09860000       0.55250000
    88  H          0.44020000       0.90140000       0.44750000
    89  H          0.60840000       0.93670000       0.61620000
    90  H          0.39160000       0.06330000       0.38380000
    91  H          0.67090000       0.00630000       0.48350000
    92  H          0.32910000      -0.00630000       0.51650000
    93  C          0.89120190       0.92112840       0.64002140
    94  C          0.10879810       0.07887160       0.35997860
    95  H         -0.00810000       0.94770000       0.63160000
    96  H          0.00810000       0.05230000       0.36840000
    97  H          0.89600000       0.86070000       0.59450000
    98  H          0.10400000       0.13930000       0.40550000
    99  H          0.86310000       0.87240000       0.72230000
   100  H          0.13690000       0.12760000       0.27770000
