data_MOQGOP
_symmetry_space_group_name_H-M    'P1'
_symmetry_Int_Tables_number       1
loop_
_symmetry_equiv_pos_site_id
_symmetry_equiv_pos_as_xyz
1 x,y,z
_cell_length_a                   8.91324
_cell_length_b                   10.67746
_cell_length_c                   12.54496
_cell_angle_alpha                69.0833
_cell_angle_beta                 80.9673
_cell_angle_gamma                77.0793
loop_
_atom_site_label
_atom_site_type_symbol
_atom_site_fract_x
_atom_site_fract_y
_atom_site_fract_z
     1  N          0.56410160       0.28937130       0.31069120
     2  N          0.43589840       0.71062870       0.68930880
     3  H          0.61830000       0.27320000       0.36711900
     4  H          0.38170000       0.72680000       0.63288100
     5  S          0.67448500       0.28087400       0.19359300
     6  S          0.32551500       0.71912600       0.80640700
     7  S          0.39456500       0.38780400       0.31856300
     8  S          0.60543500       0.61219600       0.68143700
     9  O          0.79178150       0.16432120       0.23613110
    10  O          0.20821850       0.83567880       0.76386890
    11  O          0.57796150       0.28710120       0.11004100
    12  O          0.42203850       0.71289880       0.88995900
    13  O          0.34837150       0.34662130       0.43904110
    14  O          0.65162850       0.65337870       0.56095890
    15  O          0.29857150       0.37947130       0.24097110
    16  O          0.70142850       0.62052870       0.75902890
    17  C          0.75990190       0.42748150       0.14078130
    18  C          0.24009810       0.57251850       0.85921870
    19  C          0.70132000       0.53670170       0.04811140
    20  C          0.29868000       0.46329830       0.95188860
    21  H          0.61860000       0.53090000       0.01160000
    22  H          0.38140000       0.46910000      -0.01160000
    23  C          0.76452000       0.65395170       0.00953140
    24  C          0.23548000       0.34604830      -0.00953140
    25  H          0.72530000       0.72970000       0.94670000
    26  H          0.27470000       0.27030000       0.05330000
    27  C          0.88542000       0.65958170       0.06355140
    28  C          0.11458000       0.34041830       0.93644860
    29  C          0.94652000       0.54975190       0.15481150
    30  C          0.05348000       0.45024810       0.84518850
    31  H          0.03090000       0.55490000       0.18990000
    32  H          0.96910000       0.44510000       0.81010000
    33  C          0.88282000       0.43308180       0.19371150
    34  C          0.11718000       0.56691820       0.80628850
    35  H          0.92260000       0.35720000       0.25620000
    36  H          0.07740000       0.64280000       0.74380000
    37  Br         0.97117200       0.82032200       0.00995716
    38  Br         0.02882800       0.17967800      -0.00995716
    39  C          0.43073190       0.55494150       0.27346130
    40  C          0.56926810       0.44505850       0.72653870
    41  C          0.36492000       0.65287170       0.17747140
    42  C          0.63508000       0.34712830       0.82252860
    43  H          0.30150000       0.62970000       0.13580000
    44  H          0.69850000       0.37030000       0.86420000
    45  C          0.39312000       0.78486170       0.14341150
    46  C          0.60688000       0.21513830       0.85658850
    47  H          0.34840000       0.85340000       0.07860000
    48  H          0.65160000       0.14660000       0.92140000
    49  C          0.48722000       0.81530160       0.20502140
    50  C          0.51278000       0.18469840       0.79497860
    51  C          0.55512000       0.71716180       0.30009150
    52  C          0.44488000       0.28283820       0.69990850
    53  H          0.62030000       0.74020000       0.34050000
    54  H          0.37970000       0.25980000       0.65950000
    55  C          0.52662000       0.58577170       0.33504140
    56  C          0.47338000       0.41422830       0.66495860
    57  H          0.57150000       0.51750000       0.39990000
    58  H          0.42850000       0.48250000       0.60010000
    59  Br         0.52488300      -0.00506282       0.16062117
    60  Br         0.47511700       0.00506282       0.83937883
    61  O          0.73467140       0.26642110       0.47320100
    62  O          0.26532860       0.73357890       0.52679900
    63  N          0.92031170       0.20459150       0.59525120
    64  N          0.07968830       0.79540850       0.40474880
    65  N          0.77755170       0.04638140       0.59256120
    66  N          0.22244830       0.95361860       0.40743880
    67  C          0.80772190       0.17491160       0.55116130
    68  C          0.19227810       0.82508840       0.44883870
    69  C          0.96132000       0.33934190       0.53950180
    70  C          0.03868000       0.66065810       0.46049820
    71  H          0.95590000       0.36670000       0.45660000
    72  H          0.04410000       0.63330000       0.54340000
    73  H          0.06650000       0.33650000       0.55530000
    74  H          0.93350000       0.66350000       0.44470000
    75  H          0.88890000       0.40540000       0.56910000
    76  H          0.11110000       0.59460000       0.43090000
    77  C          0.96172000       0.13752000       0.71289160
    78  C          0.03828000       0.86248000       0.28710840
    79  H          0.89390000       0.07160000       0.75450000
    80  H          0.10610000       0.92840000       0.24550000
    81  H          0.94970000       0.20580000       0.75040000
    82  H          0.05030000       0.79420000       0.24960000
    83  H          0.06930000       0.08980000       0.71280000
    84  H          0.93070000       0.91020000       0.28720000
    85  C          0.64582000       0.02147180       0.55239160
    86  C          0.35418000       0.97852820       0.44760840
    87  H          0.56070000       0.09920000       0.54550000
    88  H          0.43930000       0.90080000       0.45450000
    89  H          0.61260000       0.93870000       0.60720000
    90  H          0.38740000       0.06130000       0.39280000
    91  H          0.67560000       0.00970000       0.47750000
    92  H          0.32440000       0.99030000       0.52250000
    93  C          0.89332000       0.92460830       0.63714160
    94  C          0.10668000       0.07539170       0.36285840
    95  H         -0.00550000       0.95060000       0.62810000
    96  H          0.00550000       0.04940000       0.37190000
    97  H          0.89810000       0.86230000       0.59470000
    98  H          0.10190000       0.13770000       0.40530000
    99  H          0.86520000       0.87910000       0.71850000
   100  H          0.13480000       0.12090000       0.28150000
