data_MORIPA01
_symmetry_space_group_name_H-M    'P1'
_symmetry_Int_Tables_number       1
loop_
_symmetry_equiv_pos_site_id
_symmetry_equiv_pos_as_xyz
1 x,y,z
_cell_length_a                   8.8671
_cell_length_b                   4.85792
_cell_length_c                   29.3902
_cell_angle_alpha                90.0
_cell_angle_beta                 96.051
_cell_angle_gamma                90.0
loop_
_atom_site_label
_atom_site_type_symbol
_atom_site_fract_x
_atom_site_fract_y
_atom_site_fract_z
     1  I          0.24124619       0.58943400       0.46895760
     2  I          0.75875381       0.08943400       0.03104240
     3  I          0.75875381       0.41056600       0.53104240
     4  I          0.24124619       0.91056600       0.96895760
     5  C          0.24393000       0.26938000       0.31857100
     6  C          0.75607000       0.76938000       0.18142900
     7  C          0.75607000       0.73062000       0.68142900
     8  C          0.24393000       0.23062000       0.81857100
     9  C          0.33826000       0.39761100       0.29077150
    10  C          0.66174000       0.89761100       0.20922850
    11  C          0.66174000       0.60238900       0.70922850
    12  C          0.33826000       0.10238900       0.79077150
    13  H          0.40170000       0.54400000       0.30260000
    14  H          0.59830000       0.04400000       0.19740000
    15  H          0.59830000       0.45600000       0.69740000
    16  H          0.40170000       0.95600000       0.80260000
    17  C          0.34147000       0.31531100       0.24561150
    18  C          0.65853000       0.81531100       0.25438850
    19  C          0.65853000       0.68468900       0.75438850
    20  C          0.34147000       0.18468900       0.74561150
    21  H          0.40890000       0.40330000       0.22720000
    22  H          0.59110000       0.90330000       0.27280000
    23  H          0.59110000       0.59670000       0.77280000
    24  H          0.40890000       0.09670000       0.72720000
    25  C          0.24925000       0.11011100       0.22743120
    26  C          0.75075000       0.61011100       0.27256880
    27  C          0.75075000       0.88988900       0.77256880
    28  C          0.24925000       0.38988900       0.72743120
    29  H          0.24770000       0.06270000       0.19600000
    30  H          0.75230000       0.56270000       0.30400000
    31  H          0.75230000       0.93730000       0.80400000
    32  H          0.24770000       0.43730000       0.69600000
    33  C          0.15876000      -0.02711200       0.25492150
    34  C          0.84124000       0.47288800       0.24507850
    35  C          0.84124000       0.02711200       0.74507850
    36  C          0.15876000       0.52711200       0.75492150
    37  H          0.09770000       0.82360000       0.24290000
    38  H          0.90230000       0.32360000       0.25710000
    39  H          0.90230000       0.17640000       0.75710000
    40  H          0.09770000       0.67640000       0.74290000
    41  C          0.15595000       0.05131100       0.30045130
    42  C          0.84405000       0.55131100       0.19954870
    43  C          0.84405000       0.94868900       0.69954870
    44  C          0.15595000       0.44868900       0.80045130
    45  H          0.09310000       0.95460000       0.31930000
    46  H          0.90690000       0.45460000       0.18070000
    47  H          0.90690000       0.04540000       0.68070000
    48  H          0.09310000       0.54540000       0.81930000
    49  C          0.23753000       0.35927000       0.36494100
    50  C          0.76247000       0.85927000       0.13505900
    51  C          0.76247000       0.64073000       0.63505900
    52  C          0.23753000       0.14073000       0.86494100
    53  C          0.23383000       0.44607000       0.40305100
    54  C          0.76617000       0.94607000       0.09694900
    55  C          0.76617000       0.55393000       0.59694900
    56  C          0.23383000       0.05393000       0.90305100
    57  O          0.28822000       0.25214000       0.61565700
    58  O          0.71178000       0.75214000       0.88434300
    59  O          0.71178000       0.74786000       0.38434300
    60  O          0.28822000       0.24786000       0.11565700
    61  C          0.41763000       0.08348000       0.61074100
    62  C          0.58237000       0.58348000       0.88925900
    63  C          0.58237000       0.91652000       0.38925900
    64  C          0.41763000       0.41652000       0.11074100
    65  H          0.42710000       0.94130000       0.63500000
    66  H          0.57290000       0.44130000       0.86500000
    67  H          0.57290000       0.05870000       0.36500000
    68  H          0.42710000       0.55870000       0.13500000
    69  H          0.51050000       0.19800000       0.61420000
    70  H          0.48950000       0.69800000       0.88580000
    71  H          0.48950000       0.80200000       0.38580000
    72  H          0.51050000       0.30200000       0.11420000
    73  C          0.40273000       0.94537000       0.56413100
    74  C          0.59727000       0.44537000       0.93586900
    75  C          0.59727000       0.05463000       0.43586900
    76  C          0.40273000       0.55463000       0.06413100
    77  H          0.40340000       0.08780000       0.54010000
    78  H          0.59660000       0.58780000       0.95990000
    79  H          0.59660000       0.91220000       0.45990000
    80  H          0.40340000       0.41220000       0.04010000
    81  H          0.49120000       0.82350000       0.56190000
    82  H          0.50880000       0.32350000       0.93810000
    83  H          0.50880000       0.17650000       0.43810000
    84  H          0.49120000       0.67650000       0.06190000
    85  N          0.26253000       0.78215000       0.55599800
    86  N          0.73747000       0.28215000       0.94400200
    87  N          0.73747000       0.21785000       0.44400200
    88  N          0.26253000       0.71785000       0.05599800
    89  H          0.26860000       0.63340000       0.57600000
    90  H          0.73140000       0.13340000       0.92400000
    91  H          0.73140000       0.36660000       0.42400000
    92  H          0.26860000       0.86660000       0.07600000
    93  C          0.13103000       0.95207000       0.56448100
    94  C          0.86897000       0.45207000       0.93551900
    95  C          0.86897000       0.04793000       0.43551900
    96  C          0.13103000       0.54793000       0.06448100
    97  H          0.03940000       0.83440000       0.56280000
    98  H          0.96060000       0.33440000       0.93720000
    99  H          0.96060000       0.16560000       0.43720000
   100  H          0.03940000       0.66560000       0.06280000
   101  H          0.11450000       0.09390000       0.54030000
   102  H          0.88550000       0.59390000       0.95970000
   103  H          0.88550000       0.90610000       0.45970000
   104  H          0.11450000       0.40610000       0.04030000
   105  C          0.15243000       0.09177000       0.61086100
   106  C          0.84757000       0.59177000       0.88913900
   107  C          0.84757000       0.90823000       0.38913900
   108  C          0.15243000       0.40823000       0.11086100
   109  H          0.06430000       0.21220000       0.61440000
   110  H          0.93570000       0.71220000       0.88560000
   111  H          0.93570000       0.78780000       0.38560000
   112  H          0.06430000       0.28780000       0.11440000
   113  H          0.15740000       0.95060000       0.63530000
   114  H          0.84260000       0.45060000       0.86470000
   115  H          0.84260000       0.04940000       0.36470000
   116  H          0.15740000       0.54940000       0.13530000
