data_MOTPOE
_symmetry_space_group_name_H-M    'P1'
_symmetry_Int_Tables_number       1
loop_
_symmetry_equiv_pos_site_id
_symmetry_equiv_pos_as_xyz
1 x,y,z
_cell_length_a                   13.96275
_cell_length_b                   14.19865
_cell_length_c                   11.70394
_cell_angle_alpha                90.0
_cell_angle_beta                 90.0
_cell_angle_gamma                90.0
loop_
_atom_site_label
_atom_site_type_symbol
_atom_site_fract_x
_atom_site_fract_y
_atom_site_fract_z
     1  N          0.83582000       0.12972000       0.90538000
     2  N          0.16418000       0.87028000       0.90538000
     3  N          0.33582000       0.37028000       0.09462000
     4  N          0.66418000       0.62972000       0.09462000
     5  N          0.18742000       0.12162000       0.10153000
     6  N          0.81258000       0.87838000       0.10153000
     7  N          0.68742000       0.37838000       0.89847000
     8  N          0.31258000       0.62162000       0.89847000
     9  C          0.81973000       0.12332000       0.01763000
    10  C          0.18027000       0.87668000       0.01763000
    11  C          0.31973000       0.37668000       0.98237000
    12  C          0.68027000       0.62332000       0.98237000
    13  H          0.87275800       0.11876700       0.06806200
    14  H          0.12724200       0.88123300       0.06806200
    15  H          0.37275800       0.38123300       0.93193800
    16  H          0.62724200       0.61876700       0.93193800
    17  C          0.72833000       0.12322000       0.06263000
    18  C          0.27167000       0.87678000       0.06263000
    19  C          0.22833000       0.37678000       0.93737000
    20  C          0.77167000       0.62322000       0.93737000
    21  H          0.71893100       0.12007800       0.14294500
    22  H          0.28106900       0.87992200       0.14294500
    23  H          0.21893100       0.37992200       0.85705500
    24  H          0.78106900       0.62007800       0.85705500
    25  C          0.64983000       0.12782000      -0.01073000
    26  C          0.35017000       0.87218000      -0.01073000
    27  C          0.14983000       0.37218000       0.01073000
    28  C          0.85017000       0.62782000       0.01073000
    29  C          0.55283000       0.12742000       0.03793000
    30  C          0.44717000       0.87258000       0.03793000
    31  C          0.05283000       0.37258000       0.96207000
    32  C          0.94717000       0.62742000       0.96207000
    33  H          0.54649800       0.12949500       0.11866000
    34  H          0.45350200       0.87050500       0.11866000
    35  H          0.04649800       0.37050500       0.88134000
    36  H          0.95350200       0.62949500       0.88134000
    37  C          0.47293000       0.12442000       0.97527000
    38  C          0.52707000       0.87558000       0.97527000
    39  C          0.97293000       0.37558000       0.02473000
    40  C          0.02707000       0.62442000       0.02473000
    41  H          0.47971100       0.12386400       0.89456600
    42  H          0.52028900       0.87613600       0.89456600
    43  H          0.97971100       0.37613600       0.10543400
    44  H          0.02028900       0.62386400       0.10543400
    45  C          0.37553000       0.12182000       0.02173000
    46  C          0.62447000       0.87818000       0.02173000
    47  C          0.87553000       0.37818000       0.97827000
    48  C          0.12447000       0.62182000       0.97827000
    49  C          0.29773000       0.12112000       0.94657000
    50  C          0.70227000       0.87888000       0.94657000
    51  C          0.79773000       0.37888000       0.05343000
    52  C          0.20227000       0.62112000       0.05343000
    53  H          0.30847900       0.12081700       0.86641300
    54  H          0.69152100       0.87918300       0.86641300
    55  H          0.80847900       0.37918300       0.13358700
    56  H          0.19152100       0.62081700       0.13358700
    57  C          0.20503000       0.12092000      -0.01153000
    58  C          0.79497000       0.87908000      -0.01153000
    59  C          0.70503000       0.37908000       0.01153000
    60  C          0.29497000       0.62092000       0.01153000
    61  H          0.15275200       0.12030000       0.93649500
    62  H          0.84724800       0.87970000       0.93649500
    63  H          0.65275200       0.37970000       0.06350500
    64  H          0.34724800       0.62030000       0.06350500
    65  C          0.76183000       0.13413000       0.83397000
    66  C          0.23817000       0.86587000       0.83397000
    67  C          0.26183000       0.36587000       0.16603000
    68  C          0.73817000       0.63413000       0.16603000
    69  H          0.77376000       0.13786100       0.75417600
    70  H          0.22624000       0.86213900       0.75417600
    71  H          0.27376000       0.36213900       0.24582400
    72  H          0.72624000       0.63786100       0.24582400
    73  C          0.66823000       0.13333000       0.87217000
    74  C          0.33177000       0.86667000       0.87217000
    75  C          0.16823000       0.36667000       0.12783000
    76  C          0.83177000       0.63333000       0.12783000
    77  H          0.61669500       0.13658300       0.81921000
    78  H          0.38330500       0.86341700       0.81921000
    79  H          0.11669500       0.36341700       0.18079000
    80  H          0.88330500       0.63658300       0.18079000
    81  C          0.26123000       0.12123000       0.17473000
    82  C          0.73877000       0.87877000       0.17473000
    83  C          0.76123000       0.37877000       0.82527000
    84  C          0.23877000       0.62123000       0.82527000
    85  H          0.24822500       0.12140300       0.25435500
    86  H          0.75177500       0.87859700       0.25435500
    87  H          0.74822500       0.37859700       0.74564500
    88  H          0.25177500       0.62140300       0.74564500
    89  C          0.35543000       0.12043000       0.13853000
    90  C          0.64457000       0.87957000       0.13853000
    91  C          0.85543000       0.37957000       0.86147000
    92  C          0.14457000       0.62043000       0.86147000
    93  H          0.40607500       0.11905300       0.19265400
    94  H          0.59392500       0.88094700       0.19265400
    95  H          0.90607500       0.38094700       0.80734600
    96  H          0.09392500       0.61905300       0.80734600
    97  O          0.93971830       0.16878180       0.66122000
    98  O          0.06028170       0.83121820       0.66122000
    99  O          0.43971830       0.33121820       0.33878000
   100  O          0.56028170       0.66878180       0.33878000
   101  O          0.13172000       0.35904190       0.67412000
   102  O          0.86828000       0.64095810       0.67412000
   103  O          0.63172000       0.14095810       0.32588000
   104  O          0.36828000       0.85904190       0.32588000
   105  O          0.00538180       0.14367190       0.83258190
   106  O         -0.00538180       0.85632810       0.83258190
   107  O          0.50538180       0.35632810       0.16741810
   108  O          0.49461820       0.64367190       0.16741810
   109  H          0.94791700       0.13665000       0.85205700
   110  H          0.05208300       0.86335000       0.85205700
   111  H          0.44791700       0.36335000       0.14794300
   112  H          0.55208300       0.63665000       0.14794300
   113  N          0.12112000       0.22211190       0.57702000
   114  N          0.87888000       0.77788810       0.57702000
   115  N          0.62112000       0.27788810       0.42298000
   116  N          0.37888000       0.72211190       0.42298000
   117  H          0.11969200       0.19461000       0.50959300
   118  H          0.88030800       0.80539000       0.50959300
   119  H          0.61969200       0.30539000       0.49040700
   120  H          0.38030800       0.69461000       0.49040700
   121  C          0.14413000       0.36543000       0.46973000
   122  C          0.85587000       0.63457000       0.46973000
   123  C          0.64413000       0.13457000       0.53027000
   124  C          0.35587000       0.86543000       0.53027000
   125  H          0.10040900       0.41936600       0.46545200
   126  H          0.89959100       0.58063400       0.46545200
   127  H          0.60040900       0.08063400       0.53454800
   128  H          0.39959100       0.91936600       0.53454800
   129  H          0.12975300       0.32144300       0.40749800
   130  H          0.87024700       0.67855700       0.40749800
   131  H          0.62975300       0.17855700       0.59250200
   132  H          0.37024700       0.82144300       0.59250200
   133  H          0.21032300       0.38750500       0.46258400
   134  H          0.78967700       0.61249500       0.46258400
   135  H          0.71032300       0.11249500       0.53741600
   136  H          0.28967700       0.88750500       0.53741600
   137  C          0.13143000       0.31622000       0.58303000
   138  C          0.86857000       0.68378000       0.58303000
   139  C          0.63143000       0.18378000       0.41697000
   140  C          0.36857000       0.81622000       0.41697000
   141  C          0.11222000       0.16522000       0.67913000
   142  C          0.88778000       0.83478000       0.67913000
   143  C          0.61222000       0.33478000       0.32087000
   144  C          0.38778000       0.66522000       0.32087000
   145  H          0.15405900       0.19296000       0.73966000
   146  H          0.84594100       0.80704000       0.73966000
   147  H          0.65405900       0.30704000       0.26034000
   148  H          0.34594100       0.69296000       0.26034000
   149  C          0.14543000       0.06433000       0.65613000
   150  C          0.85457000       0.93567000       0.65613000
   151  C          0.64543000       0.43567000       0.34387000
   152  C          0.35457000       0.56433000       0.34387000
   153  H          0.11146300       0.03917400       0.58945600
   154  H          0.88853700       0.96082600       0.58945600
   155  H          0.61146300       0.46082600       0.41054400
   156  H          0.38853700       0.53917400       0.41054400
   157  H          0.13157700       0.02497600       0.72296300
   158  H          0.86842300       0.97502400       0.72296300
   159  H          0.63157700       0.47502400       0.27703700
   160  H          0.36842300       0.52497600       0.27703700
   161  H          0.21449000       0.06397200       0.64126700
   162  H          0.78551000       0.93602800       0.64126700
   163  H          0.71449000       0.43602800       0.35873300
   164  H          0.28551000       0.56397200       0.35873300
   165  C          0.00982000       0.16112000       0.72443000
   166  C         -0.00982000       0.83888000       0.72443000
   167  C          0.50982000       0.33888000       0.27557000
   168  C          0.49018000       0.66112000       0.27557000
   169  O          0.58127170       0.33027180       0.65752000
   170  O          0.41872830       0.66972820       0.65752000
   171  O          0.08127170       0.16972820       0.34248000
   172  O          0.91872830       0.83027180       0.34248000
   173  O          0.38242000       0.14142000       0.66962000
   174  O          0.61758000       0.85858000       0.66962000
   175  O          0.88242000       0.35858000       0.33038000
   176  O          0.11758000       0.64142000       0.33038000
   177  O          0.51683180       0.36011190       0.82882190
   178  O          0.48316820       0.63988810       0.82882190
   179  O          0.01683180       0.13988810       0.17117810
   180  O          0.98316820       0.86011190       0.17117810
   181  H          0.57398200       0.35818300       0.85003700
   182  H          0.42601800       0.64181700       0.85003700
   183  H          0.07398200       0.14181700       0.14996300
   184  H          0.92601800       0.85818300       0.14996300
   185  N          0.40002000       0.27769190       0.57472000
   186  N          0.59998000       0.72230810       0.57472000
   187  N          0.90002000       0.22230810       0.42528000
   188  N          0.09998000       0.77769190       0.42528000
   189  H          0.40316700       0.30565800       0.50774700
   190  H          0.59683300       0.69434200       0.50774700
   191  H          0.90316700       0.19434200       0.49225300
   192  H          0.09683300       0.80565800       0.49225300
   193  C          0.37223000       0.43363000       0.65673000
   194  C          0.62777000       0.56637000       0.65673000
   195  C          0.87223000       0.06637000       0.34327000
   196  C          0.12777000       0.93363000       0.34327000
   197  H          0.40544400       0.46076300       0.59075500
   198  H          0.59455600       0.53923700       0.59075500
   199  H          0.90544400       0.03923700       0.40924500
   200  H          0.09455600       0.96076300       0.40924500
   201  H          0.38445100       0.47235300       0.72444000
   202  H          0.61554900       0.52764700       0.72444000
   203  H          0.88445100       0.02764700       0.27556000
   204  H          0.11554900       0.97235300       0.27556000
   205  H          0.30321300       0.43170700       0.64154200
   206  H          0.69678700       0.56829300       0.64154200
   207  H          0.80321300       0.06829300       0.35845800
   208  H          0.19678700       0.93170700       0.35845800
   209  C          0.40892000       0.33362000       0.67773000
   210  C          0.59108000       0.66638000       0.67773000
   211  C          0.90892000       0.16638000       0.32227000
   212  C          0.09108000       0.83362000       0.32227000
   213  H          0.36872800       0.30411100       0.73867500
   214  H          0.63127200       0.69588900       0.73867500
   215  H          0.86872800       0.19588900       0.26132500
   216  H          0.13127200       0.80411100       0.26132500
   217  C          0.38673000       0.18452000       0.57933000
   218  C          0.61327000       0.81548000       0.57933000
   219  C          0.88673000       0.31548000       0.42067000
   220  C          0.11327000       0.68452000       0.42067000
   221  C          0.37673000       0.13553000       0.46533000
   222  C          0.62327000       0.86447000       0.46533000
   223  C          0.87673000       0.36447000       0.53467000
   224  C          0.12327000       0.63553000       0.53467000
   225  H          0.42243600       0.08319600       0.46106200
   226  H          0.57756400       0.91680400       0.46106200
   227  H          0.92243600       0.41680400       0.53893800
   228  H          0.07756400       0.58319600       0.53893800
   229  H          0.38987600       0.18033400       0.40360800
   230  H          0.61012400       0.81966600       0.40360800
   231  H          0.88987600       0.31966600       0.59639200
   232  H          0.11012400       0.68033400       0.59639200
   233  H          0.31142800       0.11107200       0.45725000
   234  H          0.68857200       0.88892800       0.45725000
   235  H          0.81142800       0.38892800       0.54275000
   236  H          0.18857200       0.61107200       0.54275000
   237  C          0.51202000       0.33932000       0.72073000
   238  C          0.48798000       0.66068000       0.72073000
   239  C          0.01202000       0.16068000       0.27927000
   240  C          0.98798000       0.83932000       0.27927000
   241  O          0.00000000       0.50000000       0.25505000
   242  O          0.50000000      -0.00000000       0.74495000
   243  H          0.02785000       0.53775000       0.29875200
   244  H          0.97215000       0.46225000       0.29875200
   245  H          0.52785000       0.96225000       0.70124800
   246  H          0.47215000       0.03775000       0.70124800
