data_MOTPUK
_symmetry_space_group_name_H-M    'P1'
_symmetry_Int_Tables_number       1
loop_
_symmetry_equiv_pos_site_id
_symmetry_equiv_pos_as_xyz
1 x,y,z
_cell_length_a                   14.08842
_cell_length_b                   11.7173512
_cell_length_c                   14.0905517
_cell_angle_alpha                90.0
_cell_angle_beta                 97.496312
_cell_angle_gamma                90.0
loop_
_atom_site_label
_atom_site_type_symbol
_atom_site_fract_x
_atom_site_fract_y
_atom_site_fract_z
     1  O          0.86436130       0.67387140       0.14763160
     2  O          0.63563870       0.67387140       0.35236840
     3  O          0.13563870       0.32612860       0.85236840
     4  O          0.36436130       0.32612860       0.64763160
     5  O          0.64048130       0.53544120       0.96033100
     6  O          0.85951870       0.53544120       0.53966900
     7  O          0.35951870       0.46455880       0.03966900
     8  O          0.14048130       0.46455880       0.46033100
     9  H          0.64098400       0.51710200       0.90276800
    10  H          0.85901600       0.51710200       0.59723200
    11  H          0.35901600       0.48289800       0.09723200
    12  H          0.14098400       0.48289800       0.40276800
    13  O          0.69548140       0.69854120       0.91054110
    14  O          0.80451860       0.69854120       0.58945890
    15  O          0.30451860       0.30145880       0.08945890
    16  O          0.19548140       0.30145880       0.41054110
    17  N          0.73263120       0.77657130       0.10018110
    18  N          0.76736880       0.77657130       0.39981890
    19  N          0.26736880       0.22342870       0.89981890
    20  N          0.23263120       0.22342870       0.60018110
    21  H          0.70812100       0.84533100       0.09065300
    22  H          0.79187900       0.84533100       0.40934700
    23  H          0.29187900       0.15466900       0.90934700
    24  H          0.20812100       0.15466900       0.59065300
    25  C          0.87595190       0.87662000       0.16450180
    26  C          0.62404810       0.87662000       0.33549820
    27  C          0.12404810       0.12338000       0.83549820
    28  C          0.37595190       0.12338000       0.66450180
    29  H          0.84300400       0.93994900       0.12871000
    30  H          0.65699600       0.93994900       0.37129000
    31  H          0.15699600       0.06005100       0.87129000
    32  H          0.34300400       0.06005100       0.62871000
    33  H          0.94200500       0.87194600       0.14998600
    34  H          0.55799500       0.87194600       0.35001400
    35  H          0.05799500       0.12805400       0.85001400
    36  H          0.44200500       0.12805400       0.64998600
    37  H          0.87623000       0.88935800       0.23326600
    38  H          0.62377000       0.88935800       0.26673400
    39  H          0.12377000       0.11064200       0.76673400
    40  H          0.37623000       0.11064200       0.73326600
    41  C          0.82452160       0.76630160       0.13606150
    42  C          0.67547840       0.76630160       0.36393850
    43  C          0.17547840       0.23369840       0.86393850
    44  C          0.32452160       0.23369840       0.63606150
    45  C          0.67159140       0.67816150       0.07628130
    46  C          0.82840860       0.67816150       0.42371870
    47  C          0.32840860       0.32183850       0.92371870
    48  C          0.17159140       0.32183850       0.57628130
    49  H          0.69600000       0.61410300       0.11962800
    50  H          0.80400000       0.61410300       0.38037200
    51  H          0.30400000       0.38589700       0.88037200
    52  H          0.19600000       0.38589700       0.61962800
    53  C          0.67153140       0.63831150       0.97352130
    54  C          0.82846860       0.63831150       0.52647870
    55  C          0.32846860       0.36168850       0.02647870
    56  C          0.17153140       0.36168850       0.47352130
    57  C          0.57005170       0.70322000       0.09293180
    58  C          0.92994830       0.70322000       0.40706820
    59  C          0.42994830       0.29678000       0.90706820
    60  C          0.07005170       0.29678000       0.59293180
    61  H          0.56812700       0.71701200       0.16124400
    62  H          0.93187300       0.71701200       0.33875600
    63  H          0.43187300       0.28298800       0.83875600
    64  H          0.06812700       0.28298800       0.66124400
    65  H          0.52920800       0.63776300       0.07209600
    66  H          0.97079200       0.63776300       0.42790400
    67  H          0.47079200       0.36223700       0.92790400
    68  H          0.02920800       0.36223700       0.57209600
    69  H          0.54684900       0.77094200       0.05627600
    70  H          0.95315100       0.77094200       0.44372400
    71  H          0.45315100       0.22905800       0.94372400
    72  H          0.04684900       0.22905800       0.55627600
    73  N          0.63000120       0.46782140       0.78709110
    74  N          0.86999880       0.46782140       0.71290890
    75  N          0.36999880       0.53217860       0.21290890
    76  N          0.13000120       0.53217860       0.28709110
    77  N          0.62092120       0.26030140       0.14509110
    78  N          0.87907880       0.26030140       0.35490890
    79  N          0.37907880       0.73969860       0.85490890
    80  N          0.12092120       0.73969860       0.64509110
    81  C          0.62883160       0.53973170       0.71364150
    82  C          0.87116840       0.53973170       0.78635850
    83  C          0.37116840       0.46026830       0.28635850
    84  C          0.12883160       0.46026830       0.21364150
    85  H          0.63122100       0.61940300       0.72619400
    86  H          0.86877900       0.61940300       0.77380600
    87  H          0.36877900       0.38059700       0.27380600
    88  H          0.13122100       0.38059700       0.22619400
    89  C          0.62431150       0.50315170       0.62033140
    90  C          0.87568850       0.50315170       0.87966860
    91  C          0.37568850       0.49684830       0.37966860
    92  C          0.12431150       0.49684830       0.12033140
    93  H          0.62240400       0.55686000       0.56960600
    94  H          0.87759600       0.55686000       0.93039400
    95  H          0.37759600       0.44314000       0.43039400
    96  H          0.12240400       0.44314000       0.06960600
    97  C          0.62254130       0.38644150       0.60109130
    98  C          0.87745870       0.38644150       0.89890870
    99  C          0.37745870       0.61355850       0.39890870
   100  C          0.12254130       0.61355850       0.10109130
   101  C          0.62353140       0.31264160       0.67835140
   102  C          0.87646860       0.31264160       0.82164860
   103  C          0.37646860       0.68735840       0.32164860
   104  C          0.12353140       0.68735840       0.17835140
   105  H          0.62161500       0.23247100       0.66822700
   106  H          0.87838500       0.23247100       0.83177300
   107  H          0.37838500       0.76752900       0.33177300
   108  H          0.12161500       0.76752900       0.16822700
   109  C          0.62728150       0.35591170       0.76972140
   110  C          0.87271850       0.35591170       0.73027860
   111  C          0.37271850       0.64408830       0.23027860
   112  C          0.12728150       0.64408830       0.26972140
   113  H          0.62795600       0.30445800       0.82190800
   114  H          0.87204400       0.30445800       0.67809200
   115  H          0.37204400       0.69554200       0.17809200
   116  H          0.12795600       0.69554200       0.32190800
   117  C          0.62159140       0.33843160       0.50487130
   118  C          0.87840860       0.33843160      -0.00487130
   119  C          0.37840860       0.66156840       0.49512870
   120  C          0.12159140       0.66156840       0.00487130
   121  H          0.62222000       0.25759900       0.49975500
   122  H          0.87778000       0.25759900       0.00024500
   123  H          0.37778000       0.74240100       0.50024500
   124  H          0.12222000       0.74240100      -0.00024500
   125  C          0.61993140       0.39719160       0.42461130
   126  C          0.88006860       0.39719160       0.07538870
   127  C          0.38006860       0.60280840       0.57538870
   128  C          0.11993140       0.60280840       0.92461130
   129  H          0.61864300       0.47806000       0.42909200
   130  H          0.88135700       0.47806000       0.07090800
   131  H          0.38135700       0.52194000       0.57090800
   132  H          0.11864300       0.52194000       0.92909200
   133  C          0.61993130       0.34728160       0.32915130
   134  C          0.88006870       0.34728160       0.17084870
   135  C          0.38006870       0.65271840       0.67084870
   136  C          0.11993130       0.65271840       0.82915130
   137  C          0.60987160       0.41812170       0.24951140
   138  C          0.89012840       0.41812170       0.25048860
   139  C          0.39012840       0.58187830       0.75048860
   140  C          0.10987160       0.58187830       0.74951140
   141  H          0.60217100       0.49802900       0.25698300
   142  H          0.89782900       0.49802900       0.24301700
   143  H          0.39782900       0.50197100       0.74301700
   144  H          0.10217100       0.50197100       0.75698300
   145  C          0.61106160       0.37213170       0.15917140
   146  C          0.88893840       0.37213170       0.34082860
   147  C          0.38893840       0.62786830       0.84082860
   148  C          0.11106160       0.62786830       0.65917140
   149  H          0.60465600       0.42178100       0.10541200
   150  H          0.89534400       0.42178100       0.39458800
   151  H          0.39534400       0.57821900       0.89458800
   152  H          0.10465600       0.57821900       0.60541200
   153  C          0.63004150       0.19150170       0.22126140
   154  C          0.86995850       0.19150170       0.27873860
   155  C          0.36995850       0.80849830       0.77873860
   156  C          0.13004150       0.80849830       0.72126140
   157  H          0.63704100       0.11187900       0.21150400
   158  H          0.86295900       0.11187900       0.28849600
   159  H          0.36295900       0.88812100       0.78849600
   160  H          0.13704100       0.88812100       0.71150400
   161  C          0.62975140       0.23077170       0.31330140
   162  C          0.87024860       0.23077170       0.18669860
   163  C          0.37024860       0.76922830       0.68669860
   164  C          0.12975140       0.76922830       0.81330140
   165  H          0.63619000       0.17887500       0.36555100
   166  H          0.86381000       0.17887500       0.13444900
   167  H          0.36381000       0.82112500       0.63444900
   168  H          0.13619000       0.82112500       0.86555100
   169  O          0.87394140       0.05702140       0.91809820
   170  O          0.62605860       0.05702140       0.58190180
   171  O          0.12605860       0.94297860       0.08190180
   172  O          0.37394140       0.94297860       0.41809820
   173  O          0.64683120       0.18151110       0.98044900
   174  O          0.85316880       0.18151110       0.51955100
   175  O          0.35316880       0.81848890       0.01955100
   176  O          0.14683120       0.81848890       0.48044900
   177  H          0.63634100       0.20376400       0.03479100
   178  H          0.86365900       0.20376400       0.46520900
   179  H          0.36365900       0.79623600       0.96520900
   180  H          0.13634100       0.79623600       0.53479100
   181  O          0.68177130       0.01917120       0.05832100
   182  O          0.81822870       0.01917120       0.44167900
   183  O          0.31822870       0.98082880       0.94167900
   184  O          0.18177130       0.98082880       0.55832100
   185  N          0.75185140       0.93453860       0.89419880
   186  N          0.74814860       0.93453860       0.60580120
   187  N          0.24814860       0.06546140       0.10580120
   188  N          0.25185140       0.06546140       0.39419880
   189  H          0.73354100       0.86286600       0.88749800
   190  H          0.76645900       0.86286600       0.61250200
   191  H          0.26645900       0.13713400       0.11250200
   192  H          0.23354100       0.13713400       0.38749800
   193  C          0.91202000       0.85818000       0.91738000
   194  C          0.58798000       0.85818000       0.58262000
   195  C          0.08798000       0.14182000       0.08262000
   196  C          0.41202000       0.14182000       0.41738000
   197  H          0.88169900       0.79309800       0.94512700
   198  H          0.61830100       0.79309800       0.55487300
   199  H          0.11830100       0.20690200       0.05487300
   200  H          0.38169900       0.20690200       0.44512700
   201  H          0.97130000       0.87819300       0.95845400
   202  H          0.52870000       0.87819300       0.54154600
   203  H          0.02870000       0.12180700       0.04154600
   204  H          0.47130000       0.12180700       0.45845400
   205  H          0.92677500       0.83797200       0.85348700
   206  H          0.57322500       0.83797200       0.64651300
   207  H          0.07322500       0.16202800       0.14651300
   208  H          0.42677500       0.16202800       0.35348700
   209  C          0.84491180       0.95859830       0.91013830
   210  C          0.65508820       0.95859830       0.58986170
   211  C          0.15508820       0.04140170       0.08986170
   212  C          0.34491180       0.04140170       0.41013830
   213  C          0.68024160       0.02340170       0.88765860
   214  C          0.81975840       0.02340170       0.61234140
   215  C          0.31975840       0.97659830       0.11234140
   216  C          0.18024160       0.97659830       0.38765860
   217  H          0.69868400       0.08490900       0.84439600
   218  H          0.80131600       0.08490900       0.65560400
   219  H          0.30131600       0.91509100       0.15560400
   220  H          0.19868400       0.91509100       0.34439600
   221  C          0.67084140       0.07486150       0.98472870
   222  C          0.82915860       0.07486150       0.51527130
   223  C          0.32915860       0.92513850       0.01527130
   224  C          0.17084140       0.92513850       0.48472870
   225  C          0.58272000       0.97607000       0.84658000
   226  C          0.91728000       0.97607000       0.65342000
   227  C          0.41728000       0.02393000       0.15342000
   228  C          0.08272000       0.02393000       0.34658000
   229  H          0.58619200       0.94514700       0.78254600
   230  H          0.91380800       0.94514700       0.71745400
   231  H          0.41380800       0.05485300       0.21745400
   232  H          0.08619200       0.05485300       0.28254600
   233  H          0.53502500       0.03744700       0.84246900
   234  H          0.96497500       0.03744700       0.65753100
   235  H          0.46497500       0.96255300       0.15753100
   236  H          0.03502500       0.96255300       0.34246900
   237  H          0.56417500       0.91544600       0.88836000
   238  H          0.93582500       0.91544600       0.61164000
   239  H          0.43582500       0.08455400       0.11164000
   240  H          0.06417500       0.08455400       0.38836000
