data_MOTQIZ
_symmetry_space_group_name_H-M    'P1'
_symmetry_Int_Tables_number       1
loop_
_symmetry_equiv_pos_site_id
_symmetry_equiv_pos_as_xyz
1 x,y,z
_cell_length_a                   13.9322
_cell_length_b                   14.191418
_cell_length_c                   11.696216
_cell_angle_alpha                90.0
_cell_angle_beta                 90.0
_cell_angle_gamma                90.0
loop_
_atom_site_label
_atom_site_type_symbol
_atom_site_fract_x
_atom_site_fract_y
_atom_site_fract_z
     1  N          0.81102000       0.87852000       0.39823000
     2  N          0.31102000       0.62148000       0.60177000
     3  N          0.68898000       0.37852000       0.60177000
     4  N          0.18898000       0.12148000       0.39823000
     5  N          0.16252000       0.86992000       0.59402000
     6  N          0.66252000       0.63008000       0.40598000
     7  N          0.33748000       0.36992000       0.40598000
     8  N          0.83748000       0.13008000       0.59402000
     9  C          0.73722000       0.87973000       0.32433000
    10  C          0.23722000       0.62027000       0.67567000
    11  C          0.76278000       0.37973000       0.67567000
    12  C          0.26278000       0.12027000       0.32433000
    13  H          0.75018800       0.88031500       0.24459300
    14  H          0.25018800       0.61968500       0.75540700
    15  H          0.74981200       0.38031500       0.75540700
    16  H          0.24981200       0.11968500       0.24459300
    17  C          0.64292000       0.88023000       0.36093000
    18  C          0.14292000       0.61977000       0.63907000
    19  C          0.85708000       0.38023000       0.63907000
    20  C          0.35708000       0.11977000       0.36093000
    21  H          0.59194900       0.88182200       0.30698800
    22  H          0.09194900       0.61817800       0.69301200
    23  H          0.90805100       0.38182200       0.69301200
    24  H          0.40805100       0.11817800       0.30698800
    25  C          0.62333000       0.87823000       0.47793000
    26  C          0.12333000       0.62177000       0.52207000
    27  C          0.87667000       0.37823000       0.52207000
    28  C          0.37667000       0.12177000       0.47793000
    29  C          0.70052000       0.87893000       0.55353000
    30  C          0.20052000       0.62107000       0.44647000
    31  C          0.79948000       0.37893000       0.44647000
    32  C          0.29948000       0.12107000       0.55353000
    33  H          0.68964400       0.87944400       0.63368500
    34  H          0.18964400       0.62055600       0.36631500
    35  H          0.81035600       0.37944400       0.36631500
    36  H          0.31035600       0.12055600       0.63368500
    37  C          0.79373000       0.87883000       0.51063000
    38  C          0.29373000       0.62117000       0.48937000
    39  C          0.70627000       0.37883000       0.48937000
    40  C          0.20627000       0.12117000       0.51063000
    41  H          0.84624900       0.87905600       0.56236100
    42  H          0.34624900       0.62094400       0.43763900
    43  H          0.65375100       0.37905600       0.43763900
    44  H          0.15375100       0.12094400       0.56236100
    45  C          0.52542000       0.87623000       0.52373000
    46  C          0.02542000       0.62377000       0.47627000
    47  C          0.97458000       0.37623000       0.47627000
    48  C          0.47458000       0.12377000       0.52373000
    49  H          0.51839100       0.87739500       0.60448700
    50  H          0.01839100       0.62260500       0.39551300
    51  H          0.98160900       0.37739500       0.39551300
    52  H          0.48160900       0.12260500       0.60448700
    53  C          0.44552000       0.87273000       0.46133000
    54  C          0.94552000       0.62727000       0.53867000
    55  C          0.05448000       0.37273000       0.53867000
    56  C          0.55448000       0.12727000       0.46133000
    57  H          0.45169900       0.87055800       0.38047800
    58  H          0.95169900       0.62944200       0.61952200
    59  H          0.04830100       0.37055800       0.61952200
    60  H          0.54830100       0.12944200       0.38047800
    61  C          0.34872000       0.87193000       0.50993000
    62  C          0.84872000       0.62807000       0.49007000
    63  C          0.15128000       0.37193000       0.49007000
    64  C          0.65128000       0.12807000       0.50993000
    65  C          0.33113000       0.86633000       0.62733000
    66  C          0.83113000       0.63367000       0.37267000
    67  C          0.16887000       0.36633000       0.37267000
    68  C          0.66887000       0.13367000       0.62733000
    69  H          0.38289300       0.86335100       0.68010000
    70  H          0.88289300       0.63664900       0.31990000
    71  H          0.11710700       0.36335100       0.31990000
    72  H          0.61710700       0.13664900       0.68010000
    73  C          0.23732000       0.86503000       0.66553000
    74  C          0.73732000       0.63497000       0.33447000
    75  C          0.26268000       0.36503000       0.33447000
    76  C          0.76268000       0.13497000       0.66553000
    77  H          0.22548600       0.86056200       0.74533900
    78  H          0.72548600       0.63943800       0.25466100
    79  H          0.27451400       0.36056200       0.25466100
    80  H          0.77451400       0.13943800       0.74533900
    81  C          0.17843000       0.87643000       0.48113000
    82  C          0.67843000       0.62357000       0.51887000
    83  C          0.32157000       0.37643000       0.51887000
    84  C          0.82157000       0.12357000       0.48113000
    85  H          0.12516200       0.88087600       0.43057600
    86  H          0.62516200       0.61912400       0.56942400
    87  H          0.37483800       0.38087600       0.56942400
    88  H          0.87483800       0.11912400       0.43057600
    89  C          0.27033000       0.87682000       0.43653000
    90  C          0.77033000       0.62318000       0.56347000
    91  C          0.22967000       0.37682000       0.56347000
    92  C          0.72967000       0.12318000       0.43653000
    93  H          0.27980900       0.88045100       0.35615800
    94  H          0.77980900       0.61954900       0.64384200
    95  H          0.22019100       0.38045100       0.64384200
    96  H          0.72019100       0.11954900       0.35615800
    97  O          0.11672000       0.64112000       0.16923000
    98  O          0.61672000       0.85888000       0.83077000
    99  O          0.38328000       0.14112000       0.83077000
   100  O          0.88328000       0.35888000       0.16923000
   101  O          0.98129170       0.86032000       0.32832000
   102  O          0.48129170       0.63968000       0.67168000
   103  O          0.51870830       0.36032000       0.67168000
   104  O          0.01870830       0.13968000       0.32832000
   105  H          0.91850000       0.87850000       0.35360000
   106  H          0.41850000       0.62150000       0.64640000
   107  H          0.58150000       0.37850000       0.64640000
   108  H          0.08150000       0.12150000       0.35360000
   109  O          0.91702160       0.83082000       0.15702000
   110  O          0.41702160       0.66918000       0.84298000
   111  O          0.58297840       0.33082000       0.84298000
   112  O          0.08297840       0.16918000       0.15702000
   113  N          0.09852000       0.77802000       0.07402000
   114  N          0.59852000       0.72198000       0.92598000
   115  N          0.40148000       0.27802000       0.92598000
   116  N          0.90148000       0.22198000       0.07402000
   117  H          0.09473600       0.80600200       0.00703000
   118  H          0.59473600       0.69399800      -0.00703000
   119  H          0.40526400       0.30600200      -0.00703000
   120  H          0.90526400       0.19399800       0.00703000
   121  C          0.12183000       0.63623000       0.96437000
   122  C          0.62183000       0.86377000       0.03563000
   123  C          0.37817000       0.13623000       0.03563000
   124  C          0.87817000       0.36377000       0.96437000
   125  H          0.18627900       0.60900800       0.95794700
   126  H          0.68627900       0.89099200       0.04205300
   127  H          0.31372100       0.10900800       0.04205300
   128  H          0.81372100       0.39099200       0.95794700
   129  H          0.11189600       0.68192800       0.90278700
   130  H          0.61189600       0.81807200       0.09721300
   131  H          0.38810400       0.18192800       0.09721300
   132  H          0.88810400       0.31807200       0.90278700
   133  H          0.07384100       0.58594300       0.95849100
   134  H          0.57384100       0.91405700       0.04150900
   135  H          0.42615900       0.08594300       0.04150900
   136  H          0.92615900       0.41405700       0.95849100
   137  C          0.11183000       0.68503000       0.07853000
   138  C          0.61183000       0.81497000       0.92147000
   139  C          0.38817000       0.18503000       0.92147000
   140  C          0.88817000       0.31497000       0.07853000
   141  C          0.08992000       0.83393000       0.17713000
   142  C          0.58992000       0.66607000       0.82287000
   143  C          0.41008000       0.33393000       0.82287000
   144  C          0.91008000       0.16607000       0.17713000
   145  H          0.13019800       0.80410800       0.23794600
   146  H          0.63019800       0.69589200       0.76205400
   147  H          0.36980200       0.30410800       0.76205400
   148  H          0.86980200       0.19589200       0.23794600
   149  C          0.98652000       0.83962000       0.22073000
   150  C          0.48652000       0.66038000       0.77927000
   151  C          0.51348000       0.33962000       0.77927000
   152  C          0.01348000       0.16038000       0.22073000
   153  C          0.12653000       0.93383000       0.15733000
   154  C          0.62653000       0.56617000       0.84267000
   155  C          0.37347000       0.43383000       0.84267000
   156  C          0.87347000       0.06617000       0.15733000
   157  H          0.19569300       0.93206500       0.14201300
   158  H          0.69569300       0.56793500       0.85798700
   159  H          0.30430700       0.43206500       0.85798700
   160  H          0.80430700       0.06793500       0.14201300
   161  H          0.11430300       0.97211300       0.22544600
   162  H          0.61430300       0.52788700       0.77455400
   163  H          0.38569700       0.47211300       0.77455400
   164  H          0.88569700       0.02788700       0.22544600
   165  H          0.09320600       0.96147700       0.09156900
   166  H          0.59320600       0.53852300       0.90843100
   167  H          0.40679400       0.46147700       0.90843100
   168  H          0.90679400       0.03852300       0.09156900
   169  O         -0.00755170       0.85622000       0.66722000
   170  O          0.49244830       0.64378000       0.33278000
   171  O          0.50755170       0.35622000       0.33278000
   172  O          0.00755170       0.14378000       0.66722000
   173  H          0.05005900       0.86187800       0.64715200
   174  H          0.55005900       0.63812200       0.35284800
   175  H          0.44994100       0.36187800       0.35284800
   176  H          0.94994100       0.13812200       0.64715200
   177  O          0.05874170       0.83152000       0.83822000
   178  O          0.55874170       0.66848000       0.16178000
   179  O          0.44125830       0.33152000       0.16178000
   180  O          0.94125830       0.16848000       0.83822000
   181  O          0.86648000       0.64102000       0.82532000
   182  O          0.36648000       0.85898000       0.17468000
   183  O          0.63352000       0.14102000       0.17468000
   184  O          0.13352000       0.35898000       0.82532000
   185  N          0.87718000       0.77802000       0.92292000
   186  N          0.37718000       0.72198000       0.07708000
   187  N          0.62282000       0.27802000       0.07708000
   188  N          0.12282000       0.22198000       0.92292000
   189  H          0.87832200       0.80554000      -0.00970900
   190  H          0.37832200       0.69446000       0.00970900
   191  H          0.62167800       0.30554000       0.00970900
   192  H          0.12167800       0.19446000      -0.00970900
   193  C          0.85517000       0.63443000       0.02983000
   194  C          0.35517000       0.86557000       0.97017000
   195  C          0.64483000       0.13443000       0.97017000
   196  C          0.14483000       0.36557000       0.02983000
   197  H          0.78837300       0.61416700       0.03833500
   198  H          0.28837300       0.88583300       0.96166500
   199  H          0.71162700       0.11416700       0.96166500
   200  H          0.21162700       0.38583300       0.03833500
   201  H          0.87205000       0.67729800       0.09236200
   202  H          0.37205000       0.82270200       0.90763800
   203  H          0.62795000       0.17729800       0.90763800
   204  H          0.12795000       0.32270200       0.09236200
   205  H          0.89745500       0.57921800       0.03200100
   206  H          0.39745500       0.92078200       0.96799900
   207  H          0.60254500       0.07921800       0.96799900
   208  H          0.10254500       0.42078200       0.03200100
   209  C          0.86728000       0.68453000       0.91723000
   210  C          0.36728000       0.81547000       0.08277000
   211  C          0.63272000       0.18453000       0.08277000
   212  C          0.13272000       0.31547000       0.91723000
   213  C          0.88618000       0.83513000       0.82103000
   214  C          0.38618000       0.66487000       0.17897000
   215  C          0.61382000       0.33513000       0.17897000
   216  C          0.11382000       0.16487000       0.82103000
   217  H          0.84393600       0.80778000       0.76034400
   218  H          0.34393600       0.69222000       0.23965600
   219  H          0.65606400       0.30778000       0.23965600
   220  H          0.15606400       0.19222000       0.76034400
   221  C          0.98848000       0.83892000       0.77553000
   222  C          0.48848000       0.66108000       0.22447000
   223  C          0.51152000       0.33892000       0.22447000
   224  C          0.01152000       0.16108000       0.77553000
   225  C          0.85347000       0.93573000       0.84464000
   226  C          0.35347000       0.56427000       0.15536000
   227  C          0.64653000       0.43573000       0.15536000
   228  C          0.14653000       0.06427000       0.84464000
   229  H          0.78492200       0.93581500       0.86349200
   230  H          0.28492200       0.56418500       0.13650800
   231  H          0.71507800       0.43581500       0.13650800
   232  H          0.21507800       0.06418500       0.86349200
   233  H          0.86438500       0.97456400       0.77659300
   234  H          0.36438500       0.52543600       0.22340700
   235  H          0.63561500       0.47456400       0.22340700
   236  H          0.13561500       0.02543600       0.77659300
   237  H          0.89004400       0.96148000       0.90901200
   238  H          0.39004400       0.53852000       0.09098800
   239  H          0.60995600       0.46148000       0.09098800
   240  H          0.10995600       0.03852000       0.90901200
   241  O         -0.00000000       0.50000000       0.24563300
   242  O          0.50000000       0.00000000       0.75436700
