data_MOWQEW
_symmetry_space_group_name_H-M    'P1'
_symmetry_Int_Tables_number       1
loop_
_symmetry_equiv_pos_site_id
_symmetry_equiv_pos_as_xyz
1 x,y,z
_cell_length_a                   8.25782
_cell_length_b                   15.45303
_cell_length_c                   14.10803
_cell_angle_alpha                90.0
_cell_angle_beta                 104.72601
_cell_angle_gamma                90.0
loop_
_atom_site_label
_atom_site_type_symbol
_atom_site_fract_x
_atom_site_fract_y
_atom_site_fract_z
     1  S          0.66709300       0.14652200       0.86004200
     2  S          0.83290700       0.64652200       0.63995800
     3  S          0.33290700       0.85347800       0.13995800
     4  S          0.16709300       0.35347800       0.36004200
     5  S          0.85672400       0.03122200       0.76633200
     6  S          0.64327600       0.53122200       0.73366800
     7  S          0.14327600       0.96877800       0.23366800
     8  S          0.35672400       0.46877800       0.26633200
     9  O          0.78354110       0.06019600       0.86066700
    10  O          0.71645890       0.56019600       0.63933300
    11  O          0.21645890       0.93980400       0.13933300
    12  O          0.28354110       0.43980400       0.36066700
    13  O          0.49954110       0.12180600       0.80825700
    14  O          0.00045890       0.62180600       0.69174300
    15  O          0.50045890       0.87819400       0.19174300
    16  O         -0.00045890       0.37819400       0.30825700
    17  O          0.71916130       0.04039700       0.68089700
    18  O          0.78083870       0.54039700       0.81910300
    19  O          0.28083870       0.95960300       0.31910300
    20  O          0.21916130       0.45960300       0.18089700
    21  O          0.90760130       0.94392400       0.79416900
    22  O          0.59239870       0.44392400       0.70583100
    23  O          0.09239870       0.05607600       0.20583100
    24  O          0.40760130       0.55607600       0.29416900
    25  O          0.73920130       0.21327600       0.81138900
    26  O          0.76079870       0.71327600       0.68861100
    27  O          0.26079870       0.78672400       0.18861100
    28  O          0.23920130       0.28672400       0.31138900
    29  O         -0.00538880       0.08982600       0.76934800
    30  O          0.50538880       0.58982600       0.73065200
    31  O          0.00538880       0.91017400       0.23065200
    32  O          0.49461120       0.41017400       0.26934800
    33  O          0.68943130       0.15851700       0.96390800
    34  O          0.81056870       0.65851700       0.53609200
    35  O          0.31056870       0.84148300       0.03609200
    36  O          0.18943130       0.34148300       0.46390800
    37  N          0.76332130       0.85312300      -0.00156200
    38  N          0.73667870       0.35312300       0.50156200
    39  N          0.23667870       0.14687700       0.00156200
    40  N          0.26332130       0.64687700       0.49843800
    41  N          0.89926130       0.74808300       0.95263800
    42  N          0.60073870       0.24808300       0.54736200
    43  N          0.10073870       0.25191700       0.04736200
    44  N          0.39926130       0.75191700       0.45263800
    45  C          0.03275160       0.69784100       0.92586100
    46  C          0.46724840       0.19784100       0.57413900
    47  C          0.96724840       0.30215900       0.07413900
    48  C          0.53275160       0.80215900       0.42586100
    49  H          0.12690000       0.73690000       0.92380000
    50  H          0.37310000       0.23690000       0.57620000
    51  H          0.87310000       0.26310000       0.07620000
    52  H          0.62690000       0.76310000       0.42380000
    53  H         -0.01080000       0.67290000       0.85960000
    54  H          0.51080000       0.17290000       0.64040000
    55  H          0.01080000       0.32710000       0.14040000
    56  H          0.48920000       0.82710000       0.35960000
    57  C          0.90807150       0.83063100       0.97992900
    58  C          0.59192850       0.33063100       0.52007100
    59  C          0.09192850       0.16936900       0.02007100
    60  C          0.40807150       0.66936900       0.47992900
    61  H         -0.00180000       0.86848600       0.98661500
    62  H          0.50180000       0.36848600       0.51338500
    63  H          0.00180000       0.13151400       0.01338500
    64  H          0.49820000       0.63151400       0.48661500
    65  C          0.65792160       0.78237100       0.98239100
    66  C          0.84207840       0.28237100       0.51760900
    67  C          0.34207840       0.21762900       0.01760900
    68  C          0.15792160       0.71762900       0.48239100
    69  H          0.54720000       0.78010000      -0.00960000
    70  H          0.95280000       0.28010000       0.50960000
    71  H          0.45280000       0.21990000       0.00960000
    72  H          0.04720000       0.71990000       0.49040000
    73  C          0.09636170       0.62501100      -0.00090900
    74  C          0.40363830       0.12501100       0.50090900
    75  C          0.90363830       0.37498900       0.00090900
    76  C          0.59636170       0.87498900       0.49909100
    77  H         -0.00000000       0.59090000       0.00820000
    78  H          0.50000000       0.09090000       0.49180000
    79  H          0.00000000       0.40910000      -0.00820000
    80  H          0.50000000       0.90910000       0.50820000
    81  H          0.15420000       0.65030000       0.06320000
    82  H          0.34580000       0.15030000       0.43680000
    83  H          0.84580000       0.34970000       0.93680000
    84  H          0.65420000       0.84970000       0.56320000
    85  C          0.21698170       0.56513100       0.96412120
    86  C          0.28301830       0.06513100       0.53587880
    87  C          0.78301830       0.43486900       0.03587880
    88  C          0.71698170       0.93486900       0.46412120
    89  H          0.23940000       0.51380000       0.00740000
    90  H          0.26060000       0.01380000       0.49260000
    91  H          0.76060000       0.48620000      -0.00740000
    92  H          0.73940000       0.98620000       0.50740000
    93  H          0.16190000       0.54480000       0.89720000
    94  H          0.33810000       0.04480000       0.60280000
    95  H          0.83810000       0.45520000       0.10280000
    96  H          0.66190000       0.95520000       0.39720000
    97  C          0.72007190       0.93909100       0.02850110
    98  C          0.77992810       0.43909100       0.47149890
    99  C          0.27992810       0.06090900       0.97149890
   100  C          0.22007190       0.56090900       0.52850110
   101  H          0.69330000       0.93258600       0.08691700
   102  H          0.80670000       0.43258600       0.41308300
   103  H          0.30670000       0.06741400       0.91308300
   104  H          0.19330000       0.56741400       0.58691700
   105  H          0.81630000       0.97308600       0.03601500
   106  H          0.68370000       0.47308600       0.46398500
   107  H          0.18370000       0.02691400       0.96398500
   108  H          0.31630000       0.52691400       0.53601500
   109  H          0.65140000       0.96698200       0.98120000
   110  H          0.84860000       0.46698200       0.51880000
   111  H          0.34860000       0.03301800       0.01880000
   112  H          0.15140000       0.53301800       0.48120000
   113  C          0.74279160       0.71651100       0.95303110
   114  C          0.75720840       0.21651100       0.54696890
   115  C          0.25720840       0.28348900       0.04696890
   116  C          0.24279160       0.78348900       0.45303110
   117  H          0.70230000       0.65960000       0.93600000
   118  H          0.79770000       0.15960000       0.56400000
   119  H          0.29770000       0.34040000       0.06400000
   120  H          0.20230000       0.84040000       0.43600000
   121  C          0.38215190       0.60688890       0.96286150
   122  C          0.11784810       0.10688890       0.53713850
   123  C          0.61784810       0.39311110       0.03713850
   124  C          0.88215190       0.89311110       0.46286150
   125  H          0.45240000       0.56490000       0.93970000
   126  H          0.04760000       0.06490000       0.56030000
   127  H          0.54760000       0.43510000       0.06030000
   128  H          0.95240000       0.93510000       0.43970000
   129  H          0.43940000       0.62580000       0.02920000
   130  H          0.06060000       0.12580000       0.47080000
   131  H          0.56060000       0.37420000       0.97080000
   132  H          0.93940000       0.87420000       0.52920000
   133  H          0.36170000       0.65700000       0.91880000
   134  H          0.13830000       0.15700000       0.58120000
   135  H          0.63830000       0.34300000       0.08120000
   136  H          0.86170000       0.84300000       0.41880000
   137  N          0.43653160       0.91711200       0.75334100
   138  N          0.06346840       0.41711200       0.74665900
   139  N          0.56346840       0.08288800       0.24665900
   140  N          0.93653160       0.58288800       0.25334100
   141  H          0.48230000       0.98008700       0.76691500
   142  H          0.01770000       0.48008700       0.73308500
   143  H          0.51770000       0.01991300       0.23308500
   144  H         -0.01770000       0.51991300       0.26691500
   145  C          0.53067150       0.84609200       0.74244900
   146  C          0.96932850       0.34609200       0.75755100
   147  C          0.46932850       0.15390800       0.25755100
   148  C          0.03067150       0.65390800       0.24244900
   149  H          0.64510000       0.85270000       0.74250000
   150  H          0.85490000       0.35270000       0.75750000
   151  H          0.35490000       0.14730000       0.25750000
   152  H          0.14510000       0.64730000       0.24250000
   153  C          0.45911130       0.76720300       0.73164800
   154  C          0.04088870       0.26720300       0.76835200
   155  C          0.54088870       0.23279700       0.26835200
   156  C          0.95911130       0.73279700       0.23164800
   157  H          0.52530000       0.71870000       0.72390000
   158  H          0.97470000       0.21870000       0.77610000
   159  H          0.47470000       0.28130000       0.27610000
   160  H          0.02530000       0.78130000       0.22390000
   161  C          0.19880150       0.82337100       0.74174100
   162  C          0.30119850       0.32337100       0.75825900
   163  C          0.80119850       0.17662900       0.25825900
   164  C          0.69880150       0.67662900       0.24174100
   165  H          0.08460000       0.81500000       0.74120000
   166  H          0.41540000       0.31500000       0.75880000
   167  H          0.91540000       0.18500000       0.25880000
   168  H          0.58460000       0.68500000       0.24120000
   169  C          0.29822150       0.75413200       0.73129100
   170  C          0.20177850       0.25413200       0.76870900
   171  C          0.70177850       0.24586800       0.26870900
   172  C          0.79822150       0.74586800       0.23129100
   173  H          0.25290000       0.69730000       0.72390000
   174  H          0.24710000       0.19730000       0.77610000
   175  H          0.74710000       0.30270000       0.27610000
   176  H          0.75290000       0.80270000       0.22390000
   177  C          0.26896160       0.90586100       0.75311100
   178  C          0.23103840       0.40586100       0.74688900
   179  C          0.73103840       0.09413900       0.24688900
   180  C          0.76896160       0.59413900       0.25311100
   181  H          0.20270000       0.95440000       0.76070000
   182  H          0.29730000       0.45440000       0.73930000
   183  H          0.79730000       0.04560000       0.23930000
   184  H          0.70270000       0.54560000       0.26070000
