data_MOYLUJ01
_symmetry_space_group_name_H-M    'P1'
_symmetry_Int_Tables_number       1
loop_
_symmetry_equiv_pos_site_id
_symmetry_equiv_pos_as_xyz
1 x,y,z
_cell_length_a                   6.48006
_cell_length_b                   7.40907
_cell_length_c                   8.08248
_cell_angle_alpha                63.9391
_cell_angle_beta                 67.2901
_cell_angle_gamma                69.4719
loop_
_atom_site_label
_atom_site_type_symbol
_atom_site_fract_x
_atom_site_fract_y
_atom_site_fract_z
     1  I          0.23022500       0.24153500       0.30700400
     2  I          0.76977500       0.75846500       0.69299600
     3  I          0.77669600       0.07414500       0.08832400
     4  I          0.22330400       0.92585500       0.91167600
     5  N          0.63417000       0.32566000       0.44456000
     6  N          0.36583000       0.67434000       0.55544000
     7  H          0.76680000       0.24950000       0.40820000
     8  H          0.23320000       0.75050000       0.59180000
     9  H          0.52960000       0.27330000       0.45368000
    10  H          0.47040000       0.72670000       0.54632000
    11  C          0.61748000       0.53667000       0.29897000
    12  C          0.38252000       0.46333000       0.70103000
    13  H          0.62890000       0.53170000       0.17750000
    14  H          0.37110000       0.46830000       0.82250000
    15  H          0.74300000       0.59220000       0.28020000
    16  H          0.25700000       0.40780000       0.71980000
    17  C          0.60738000       0.32647000       0.63677000
    18  C          0.39262000       0.67353000       0.36323000
    19  H          0.73250000       0.37500000       0.62940000
    20  H          0.26750000       0.62500000       0.37060000
    21  H          0.61350000       0.18730000       0.72940000
    22  H          0.38650000       0.81270000       0.27060000
    23  H          0.23480000       0.75150000       0.59220000
    24  H          0.76520000       0.24850000       0.40780000
