data_MOYLUJ
_symmetry_space_group_name_H-M    'P1'
_symmetry_Int_Tables_number       1
loop_
_symmetry_equiv_pos_site_id
_symmetry_equiv_pos_as_xyz
1 x,y,z
_cell_length_a                   6.51863
_cell_length_b                   7.49503
_cell_length_c                   8.13124
_cell_angle_alpha                64.6354
_cell_angle_beta                 68.0604
_cell_angle_gamma                69.5074
loop_
_atom_site_label
_atom_site_type_symbol
_atom_site_fract_x
_atom_site_fract_y
_atom_site_fract_z
     1  I          0.26686500       0.25996500       0.69191500
     2  I          0.73313500       0.74003500       0.30808500
     3  I          0.27769600       0.57367500       0.08774400
     4  I          0.72230400       0.42632500       0.91225600
     5  N          0.13866000       0.83025000       0.44165000
     6  N          0.86134000       0.16975000       0.55835000
     7  H          0.03440000       0.77420000       0.44570000
     8  H          0.96560000       0.22580000       0.55430000
     9  H          0.27700000       0.75540000       0.40370000
    10  H          0.72300000       0.24460000       0.59630000
    11  C          0.11608000       0.04107000       0.30236000
    12  C          0.88392000       0.95893000       0.69764000
    13  H          0.12830000       0.03830000       0.18070000
    14  H          0.87170000       0.96170000       0.81930000
    15  H          0.23830000       0.09660000       0.28730000
    16  H          0.76170000       0.90340000       0.71270000
    17  C          0.89292000       0.17307000       0.36636000
    18  C          0.10708000       0.82693000       0.63364000
    19  H          0.88600000       0.31100000       0.27840000
    20  H          0.11400000       0.68900000       0.72160000
    21  H          0.77110000       0.12620000       0.36750000
    22  H          0.22890000       0.87380000       0.63250000
