data_MPPZPO
_symmetry_space_group_name_H-M    'P1'
_symmetry_Int_Tables_number       1
loop_
_symmetry_equiv_pos_site_id
_symmetry_equiv_pos_as_xyz
1 x,y,z
_cell_length_a                   10.567
_cell_length_b                   9.772
_cell_length_c                   23.441
_cell_angle_alpha                90.0
_cell_angle_beta                 90.0
_cell_angle_gamma                119.8
loop_
_atom_site_label
_atom_site_type_symbol
_atom_site_fract_x
_atom_site_fract_y
_atom_site_fract_z
     1  P          0.12880000       0.30580000       0.38260000
     2  P          0.87120000       0.19420000       0.88260000
     3  P          0.87120000       0.69420000       0.61740000
     4  P          0.12880000       0.80580000       0.11740000
     5  N          0.94960000       0.23270000       0.49180000
     6  N          0.05040000       0.26730000       0.99180000
     7  N          0.05040000       0.76730000       0.50820000
     8  N          0.94960000       0.73270000       0.00820000
     9  O          0.24780000       0.30540000       0.34870000
    10  O          0.75220000       0.19460000       0.84870000
    11  O          0.75220000       0.69460000       0.65130000
    12  O          0.24780000       0.80540000       0.15130000
    13  C         -0.01090000       0.11860000       0.40590000
    14  C          0.01090000       0.38140000       0.90590000
    15  C          0.01090000       0.88140000       0.59410000
    16  C         -0.01090000       0.61860000       0.09410000
    17  C          0.95580000      -0.01210000       0.37230000
    18  C          0.04420000       0.51210000       0.87230000
    19  C          0.04420000       0.01210000       0.62770000
    20  C          0.95580000       0.48790000       0.12770000
    21  C          0.84580000       0.83990000       0.38890000
    22  C          0.15420000       0.66010000       0.88890000
    23  C          0.15420000       0.16010000       0.61110000
    24  C          0.84580000       0.33990000       0.11110000
    25  C          0.77010000       0.82330000       0.43940000
    26  C          0.22990000       0.67670000       0.93940000
    27  C          0.22990000       0.17670000       0.56060000
    28  C          0.77010000       0.32330000       0.06060000
    29  C          0.80640000       0.95250000       0.47300000
    30  C          0.19360000       0.54750000       0.97300000
    31  C          0.19360000       0.04750000       0.52700000
    32  C          0.80640000       0.45250000       0.02700000
    33  C          0.91640000       0.10480000       0.45710000
    34  C          0.08360000       0.39520000       0.95710000
    35  C          0.08360000       0.89520000       0.54290000
    36  C          0.91640000       0.60480000       0.04290000
    37  C          0.18560000       0.40670000       0.44810000
    38  C          0.81440000       0.09330000       0.94810000
    39  C          0.81440000       0.59330000       0.55190000
    40  C          0.18560000       0.90670000       0.05190000
    41  C          0.32970000       0.53020000       0.45400000
    42  C          0.67030000       0.96980000       0.95400000
    43  C          0.67030000       0.46980000       0.54600000
    44  C          0.32970000       0.03020000       0.04600000
    45  C          0.37760000       0.61850000       0.50350000
    46  C          0.62240000       0.88150000       0.00350000
    47  C          0.62240000       0.38150000       0.49650000
    48  C          0.37760000       0.11850000      -0.00350000
    49  C          0.28040000       0.58290000       0.54760000
    50  C          0.71960000       0.91710000       0.04760000
    51  C          0.71960000       0.41710000       0.45240000
    52  C          0.28040000       0.08290000       0.95240000
    53  C          0.13920000       0.46030000       0.54380000
    54  C          0.86080000       0.03970000       0.04380000
    55  C          0.86080000       0.53970000       0.45620000
    56  C          0.13920000       0.96030000       0.95620000
    57  C          0.09060000       0.36650000       0.49400000
    58  C          0.90940000       0.13350000       0.99400000
    59  C          0.90940000       0.63350000       0.50600000
    60  C          0.09060000       0.86650000       0.00600000
    61  C          0.04130000       0.39330000       0.34300000
    62  C          0.95870000       0.10670000       0.84300000
    63  C          0.95870000       0.60670000       0.65700000
    64  C          0.04130000       0.89330000       0.15700000
    65  C          0.89320000       0.31560000       0.33290000
    66  C          0.10680000       0.18440000       0.83290000
    67  C          0.10680000       0.68440000       0.66710000
    68  C          0.89320000       0.81560000       0.16710000
    69  C          0.82770000       0.38430000       0.30170000
    70  C          0.17230000       0.11570000       0.80170000
    71  C          0.17230000       0.61570000       0.69830000
    72  C          0.82770000       0.88430000       0.19830000
    73  C          0.91330000       0.53820000       0.28260000
    74  C          0.08670000       0.96180000       0.78260000
    75  C          0.08670000       0.46180000       0.71740000
    76  C          0.91330000       0.03820000       0.21740000
    77  C          0.06440000       0.62240000       0.29270000
    78  C          0.93560000       0.87760000       0.79270000
    79  C          0.93560000       0.37760000       0.70730000
    80  C          0.06440000       0.12240000       0.20730000
    81  C          0.12790000       0.54960000       0.32290000
    82  C          0.87210000       0.95040000       0.82290000
    83  C          0.87210000       0.45040000       0.67710000
    84  C          0.12790000       0.04960000       0.17710000
    85  C          0.84690000       0.21280000       0.53870000
    86  C          0.15310000       0.28720000       0.03870000
    87  C          0.15310000       0.78720000       0.46130000
    88  C          0.84690000       0.71280000       0.96130000
    89  H          0.02000000       0.00900000       0.33800000
    90  H         -0.02000000       0.49100000       0.83800000
    91  H         -0.02000000      -0.00900000       0.66200000
    92  H          0.02000000       0.50900000       0.16200000
    93  H          0.82400000       0.77800000       0.36600000
    94  H          0.17600000       0.72200000       0.86600000
    95  H          0.17600000       0.22200000       0.63400000
    96  H          0.82400000       0.27800000       0.13400000
    97  H          0.70500000       0.72900000       0.45400000
    98  H          0.29500000       0.77100000       0.95400000
    99  H          0.29500000       0.27100000       0.54600000
   100  H          0.70500000       0.22900000       0.04600000
   101  H          0.76700000       0.94100000       0.50500000
   102  H          0.23300000       0.55900000       0.00500000
   103  H          0.23300000       0.05900000       0.49500000
   104  H          0.76700000       0.44100000      -0.00500000
   105  H          0.39700000       0.55100000       0.42200000
   106  H          0.60300000       0.94900000       0.92200000
   107  H          0.60300000       0.44900000       0.57800000
   108  H          0.39700000       0.05100000       0.07800000
   109  H          0.48700000       0.70800000       0.50700000
   110  H          0.51300000       0.79200000       0.00700000
   111  H          0.51300000       0.29200000       0.49300000
   112  H          0.48700000       0.20800000       0.99300000
   113  H          0.31500000       0.65200000       0.58200000
   114  H          0.68500000       0.84800000       0.08200000
   115  H          0.68500000       0.34800000       0.41800000
   116  H          0.31500000       0.15200000       0.91800000
   117  H          0.06900000       0.42700000       0.57200000
   118  H          0.93100000       0.07300000       0.07200000
   119  H          0.93100000       0.57300000       0.42800000
   120  H          0.06900000       0.92700000       0.92800000
   121  H          0.84600000       0.21300000       0.34300000
   122  H          0.15400000       0.28700000       0.84300000
   123  H          0.15400000       0.78700000       0.65700000
   124  H          0.84600000       0.71300000       0.15700000
   125  H          0.71600000       0.33100000       0.30100000
   126  H          0.28400000       0.16900000       0.80100000
   127  H          0.28400000       0.66900000       0.69900000
   128  H          0.71600000       0.83100000       0.19900000
   129  H          0.86900000       0.59400000       0.26000000
   130  H          0.13100000       0.90600000       0.76000000
   131  H          0.13100000       0.40600000       0.74000000
   132  H          0.86900000       0.09400000       0.24000000
   133  H          0.13500000       0.74200000       0.27700000
   134  H          0.86500000       0.75800000       0.77700000
   135  H          0.86500000       0.25800000       0.72300000
   136  H          0.13500000       0.24200000       0.22300000
   137  H          0.23100000       0.59800000       0.32800000
   138  H          0.76900000       0.90200000       0.82800000
   139  H          0.76900000       0.40200000       0.67200000
   140  H          0.23100000       0.09800000       0.17200000
   141  H          0.76600000       0.15600000       0.52600000
   142  H          0.23400000       0.34400000       0.02600000
   143  H          0.23400000       0.84400000       0.47400000
   144  H          0.76600000       0.65600000       0.97400000
   145  H          0.85500000       0.32000000       0.54600000
   146  H          0.14500000       0.18000000       0.04600000
   147  H          0.14500000       0.68000000       0.45400000
   148  H          0.85500000       0.82000000       0.95400000
   149  H          0.87500000       0.16700000       0.57200000
   150  H          0.12500000       0.33300000       0.07200000
   151  H          0.12500000       0.83300000       0.42800000
   152  H          0.87500000       0.66700000       0.92800000
   153  O          0.37990000       0.16170000       0.39750000
   154  O          0.62010000       0.33830000       0.89750000
   155  O          0.62010000       0.83830000       0.60250000
   156  O          0.37990000       0.66170000       0.10250000
   157  C          0.42000000       0.08310000       0.36050000
   158  C          0.58000000       0.41690000       0.86050000
   159  C          0.58000000       0.91690000       0.63950000
   160  C          0.42000000       0.58310000       0.13950000
   161  C          0.38660000       0.07130000       0.30390000
   162  C          0.61340000       0.42870000       0.80390000
   163  C          0.61340000       0.92870000       0.69610000
   164  C          0.38660000       0.57130000       0.19610000
   165  C          0.43250000      -0.00890000       0.26920000
   166  C          0.56750000       0.50890000       0.76920000
   167  C          0.56750000       0.00890000       0.73080000
   168  C          0.43250000       0.49110000       0.23080000
   169  C          0.51090000       0.92380000       0.28980000
   170  C          0.48910000       0.57620000       0.78980000
   171  C          0.48910000       0.07620000       0.71020000
   172  C          0.51090000       0.42380000       0.21020000
   173  C          0.54050000       0.93380000       0.34790000
   174  C          0.45950000       0.56620000       0.84790000
   175  C          0.45950000       0.06620000       0.65210000
   176  C          0.54050000       0.43380000       0.15210000
   177  C          0.49640000       0.01360000       0.38370000
   178  C          0.50360000       0.48640000       0.88370000
   179  C          0.50360000      -0.01360000       0.61630000
   180  C          0.49640000       0.51360000       0.11630000
   181  H          0.33300000       0.11700000       0.28900000
   182  H          0.66700000       0.38300000       0.78900000
   183  H          0.66700000       0.88300000       0.71100000
   184  H          0.33300000       0.61700000       0.21100000
   185  H          0.43200000       0.03100000       0.22800000
   186  H          0.56800000       0.46900000       0.72800000
   187  H          0.56800000       0.96900000       0.77200000
   188  H          0.43200000       0.53100000       0.27200000
   189  H          0.51600000       0.87000000       0.26400000
   190  H          0.48400000       0.63000000       0.76400000
   191  H          0.48400000       0.13000000       0.73600000
   192  H          0.51600000       0.37000000       0.23600000
   193  H          0.57100000       0.88600000       0.37500000
   194  H          0.42900000       0.61400000       0.87500000
   195  H          0.42900000       0.11400000       0.62500000
   196  H          0.57100000       0.38600000       0.12500000
   197  H          0.50100000       0.04500000       0.41500000
   198  H          0.49900000       0.45500000       0.91500000
   199  H          0.49900000       0.95500000       0.58500000
   200  H          0.50100000       0.54500000       0.08500000
   201  H          0.34800000       0.23700000       0.38700000
   202  H          0.65200000       0.26300000       0.88700000
   203  H          0.65200000       0.76300000       0.61300000
   204  H          0.34800000       0.73700000       0.11300000
