data_MUBVEL
_symmetry_space_group_name_H-M    'P1'
_symmetry_Int_Tables_number       1
loop_
_symmetry_equiv_pos_site_id
_symmetry_equiv_pos_as_xyz
1 x,y,z
_cell_length_a                   8.15401
_cell_length_b                   10.2682
_cell_length_c                   13.7712
_cell_angle_alpha                80.6562
_cell_angle_beta                 86.4312
_cell_angle_gamma                75.3772
loop_
_atom_site_label
_atom_site_type_symbol
_atom_site_fract_x
_atom_site_fract_y
_atom_site_fract_z
     1  Br         0.02842500       0.72284400       0.21176300
     2  Br         0.97157500       0.27715600       0.78823700
     3  S          0.47922800       0.81504700       0.68119500
     4  S          0.52077200       0.18495300       0.31880500
     5  O          0.54752000       0.41820180       0.70208140
     6  O          0.45248000       0.58179820       0.29791860
     7  O          0.40932000       0.90091190       0.58833150
     8  O          0.59068000       0.09908810       0.41166850
     9  C          0.53653000       0.64163000       0.66622190
    10  C          0.46347000       0.35837000       0.33377810
    11  C          0.63103000       0.57543000       0.58705190
    12  C          0.36897000       0.42457000       0.41294810
    13  C          0.71473000       0.61603000       0.49732000
    14  C          0.28527000       0.38397000       0.50268000
    15  C          0.70984000       0.75223000       0.45662000
    16  C          0.29016000       0.24777000       0.54338000
    17  H          0.64420000       0.82260000       0.48740000
    18  H          0.35580000       0.17740000       0.51260000
    19  C          0.80014000       0.78243000       0.37232000
    20  C          0.19986000       0.21757000       0.62768000
    21  H          0.79660000       0.87250000       0.34650000
    22  H          0.20340000       0.12750000       0.65350000
    23  C          0.89744000       0.67694000       0.32542000
    24  C          0.10256000       0.32306000       0.67458000
    25  C          0.89914000       0.54473000       0.35872000
    26  C          0.10086000       0.45527000       0.64128000
    27  H          0.96170000       0.47670000       0.32460000
    28  H          0.03830000       0.52330000       0.67540000
    29  C          0.80643000       0.50983000       0.44502000
    30  C          0.19357000       0.49017000       0.55498000
    31  C          0.80214000       0.37213000       0.47902000
    32  C          0.19786000       0.62787000       0.52098000
    33  H          0.86110000       0.30480000       0.44320000
    34  H          0.13890000       0.69520000       0.55680000
    35  C          0.71484000       0.33593000       0.56162000
    36  C          0.28516000       0.66407000       0.43838000
    37  H          0.71020000       0.24600000       0.58230000
    38  H          0.28980000       0.75400000       0.41770000
    39  C          0.63233000       0.44003000       0.61412000
    40  C          0.36767000       0.55997000       0.38588000
    41  C          0.49023000       0.54273000       0.73342000
    42  C          0.50977000       0.45727000       0.26658000
    43  C          0.39853000       0.53863000       0.82862000
    44  C          0.60147000       0.46137000       0.17138000
    45  C          0.32484000       0.42993000       0.86062000
    46  C          0.67516000       0.57007000       0.13938000
    47  H          0.33490000       0.36200000       0.82180000
    48  H          0.66510000       0.63800000       0.17820000
    49  C          0.23684000       0.42254000       0.94982000
    50  C          0.76316000       0.57746000       0.05018000
    51  H          0.18920000       0.34910000       0.97080000
    52  H          0.81080000       0.65090000       0.02920000
    53  C          0.21904000       0.52274000       0.00782000
    54  C          0.78096000       0.47726000      -0.00782000
    55  H          0.15710000       0.51840000       0.06680000
    56  H          0.84290000       0.48160000       0.93320000
    57  C          0.29344000       0.62933000       0.97802000
    58  C          0.70656000       0.37067000       0.02198000
    59  H          0.28330000       0.69640000       0.01760000
    60  H          0.71670000       0.30360000       0.98240000
    61  C          0.38364000       0.63723000       0.88932000
    62  C          0.61636000       0.36277000       0.11068000
    63  H          0.43450000       0.70910000       0.87020000
    64  H          0.56550000       0.29090000       0.12980000
    65  C          0.68973000       0.83603000       0.69402000
    66  C          0.31027000       0.16397000       0.30598000
    67  C          0.74294000       0.94003000       0.63522000
    68  C          0.25706000       0.05997000       0.36478000
    69  H          0.67400000      -0.00300000       0.58640000
    70  H          0.32600000       0.00300000       0.41360000
    71  C          0.90204000       0.95764000       0.65063000
    72  C          0.09796000       0.04236000       0.34937000
    73  H          0.94170000       0.02540000       0.61010000
    74  H          0.05830000       0.97460000       0.38990000
    75  C          0.00164000       0.87624000       0.72483000
    76  C         -0.00164000       0.12376000       0.27517000
    77  H          0.10700000       0.89030000       0.73530000
    78  H          0.89300000       0.10970000       0.26470000
    79  C          0.94554000       0.77414000       0.78343000
    80  C          0.05446000       0.22586000       0.21657000
    81  H          0.01300000       0.71910000       0.83370000
    82  H          0.98700000       0.28090000       0.16630000
    83  C          0.78954000       0.75273000       0.76812000
    84  C          0.21046000       0.24727000       0.23188000
    85  H          0.75190000       0.68290000       0.80740000
    86  H          0.24810000       0.31710000       0.19260000
    87  C          0.59940000       0.02941100       0.91961700
    88  C          0.40060000       0.97058900       0.08038300
    89  H          0.66560000       0.05030000       0.86480000
    90  H          0.33440000       0.94970000       0.13520000
    91  C          0.43250000       0.03461100       0.90901400
    92  C          0.56750000       0.96538900       0.09098600
    93  H          0.38620000       0.05750000       0.84660000
    94  H          0.61380000       0.94250000       0.15340000
    95  C          0.33181700       0.00651400       0.98930000
    96  C          0.66818300      -0.00651400       0.01070000
    97  H          0.21770000       0.01180000       0.98100000
    98  H          0.78230000      -0.01180000       0.01900000
