data_MUDVUE
_symmetry_space_group_name_H-M    'P1'
_symmetry_Int_Tables_number       1
loop_
_symmetry_equiv_pos_site_id
_symmetry_equiv_pos_as_xyz
1 x,y,z
_cell_length_a                   3.637111
_cell_length_b                   36.54111
_cell_length_c                   6.5642
_cell_angle_alpha                90.0
_cell_angle_beta                 94.9983
_cell_angle_gamma                90.0
loop_
_atom_site_label
_atom_site_type_symbol
_atom_site_fract_x
_atom_site_fract_y
_atom_site_fract_z
     1  C          0.67396000       0.69847700       0.06624000
     2  C          0.32604000       0.19847700       0.93376000
     3  N          0.56985000       0.71001600       0.24723000
     4  N          0.43015000       0.21001600       0.75277000
     5  C          0.46156000       0.68387700       0.37324000
     6  C          0.53844000       0.18387700       0.62676000
     7  H          0.38970000       0.69070000       0.50360000
     8  H          0.61030000       0.19070000       0.49640000
     9  C          0.45176000       0.64741700       0.31834000
    10  C          0.54824000       0.14741700       0.68166000
    11  H          0.37750000       0.62980000       0.41320000
    12  H          0.62250000       0.12980000       0.58680000
    13  N          0.54355000       0.63604600       0.13583000
    14  N          0.45645000       0.13604600       0.86417000
    15  C          0.65746000       0.66189700       0.00964000
    16  C          0.34254000       0.16189700      -0.00964000
    17  H          0.72810000       0.65500000       0.87910000
    18  H          0.27190000       0.15500000       0.12090000
    19  C          0.81757000       0.72628700       0.92344000
    20  C          0.18243000       0.22628700       0.07656000
    21  N          0.79586000       0.76129600       0.97634000
    22  N          0.20414000       0.26129600       0.02366000
    23  H          0.70790000       0.76939000       0.08540000
    24  H          0.29210000       0.26939000       0.91460000
    25  H          0.89411000       0.78051100       0.89450000
    26  H          0.10589000       0.28051100       0.10550000
    27  O          0.95445000       0.71518500       0.76792000
    28  O          0.04555000       0.21518500       0.23208000
    29  C          0.33136000       0.83350600       0.41274000
    30  C          0.66864000       0.33350600       0.58726000
    31  N          0.45435000       0.82132600       0.23743000
    32  N          0.54565000       0.32132600       0.76257000
    33  C          0.54916000       0.84730700       0.10854000
    34  C          0.45084000       0.34730700       0.89146000
    35  H          0.63610000       0.84030000      -0.01810000
    36  H          0.36390000       0.34030000       0.01810000
    37  C          0.52416000       0.88457700       0.15474000
    38  C          0.47584000       0.38457700       0.84526000
    39  H          0.58950000       0.90200000       0.05680000
    40  H          0.41050000       0.40200000       0.94320000
    41  N          0.41195000       0.89643500       0.33093000
    42  N          0.58805000       0.39643500       0.66907000
    43  C          0.31697000       0.87057700       0.46074000
    44  C          0.68303000       0.37057700       0.53926000
    45  H          0.23760000       0.87770000       0.58900000
    46  H          0.76240000       0.37770000       0.41100000
    47  C          0.20086000       0.80565600       0.55944000
    48  C          0.79914000       0.30565600       0.44056000
    49  N          0.23576000       0.77079600       0.50834000
    50  N          0.76424000       0.27079600       0.49166000
    51  H          0.16190000       0.75359000       0.59150000
    52  H          0.83810000       0.25359000       0.40850000
    53  H          0.34312000       0.76661200       0.40160000
    54  H          0.65688000       0.26661200       0.59840000
    55  O          0.06114000       0.81583400       0.71493000
    56  O          0.93886000       0.31583400       0.28507000
    57  C          0.04526000       0.48845600       0.35604000
    58  C          0.95474000       0.98845600       0.64396000
    59  C          0.21236000       0.48151600       0.54954000
    60  C          0.78764000       0.98151600       0.45046000
    61  H          0.28810000       0.45750000       0.58930000
    62  H          0.71190000       0.95750000       0.41070000
    63  C          0.26576000       0.51083600       0.68394000
    64  C          0.73424000       0.01083600       0.31606000
    65  H          0.37890000       0.50690000       0.81810000
    66  H          0.62110000       0.00690000       0.18190000
    67  C          0.15456000       0.54581600       0.62304000
    68  C          0.84544000       0.04581600       0.37696000
    69  C         -0.01466000       0.55181600       0.42674000
    70  C          0.01466000       0.05181600       0.57326000
    71  H          0.90800000       0.57580000       0.38620000
    72  H          0.09200000       0.07580000       0.61380000
    73  C          0.92974000       0.52269700       0.29014000
    74  C          0.07026000       0.02269700       0.70986000
    75  H          0.81590000       0.52640000       0.15590000
    76  H          0.18410000       0.02640000       0.84410000
    77  N         -0.01205000       0.45788500       0.21063000
    78  N          0.01205000       0.95788500       0.78937000
    79  O          0.79395000       0.46339500       0.04903000
    80  O          0.20605000       0.96339500       0.95097000
    81  O          0.13385000       0.42845500       0.25643000
    82  O          0.86615000       0.92845500       0.74357000
    83  C          0.21386000       0.57823600       0.75964000
    84  C          0.78614000       0.07823600       0.24036000
    85  O          0.40254000       0.57115500       0.93773000
    86  O          0.59746000       0.07115500       0.06227000
    87  O          0.10065000       0.60879400       0.71013000
    88  O          0.89935000       0.10879400       0.28987000
    89  H          0.44710000       0.59371100       0.01560000
    90  H          0.55290000       0.09371100      -0.01560000
