data_MUFNIK
_symmetry_space_group_name_H-M    'P1'
_symmetry_Int_Tables_number       1
loop_
_symmetry_equiv_pos_site_id
_symmetry_equiv_pos_as_xyz
1 x,y,z
_cell_length_a                   9.20794
_cell_length_b                   13.25535
_cell_length_c                   17.89288
_cell_angle_alpha                90.0
_cell_angle_beta                 93.38501
_cell_angle_gamma                90.0
loop_
_atom_site_label
_atom_site_type_symbol
_atom_site_fract_x
_atom_site_fract_y
_atom_site_fract_z
     1  S          0.68684800       0.30855600       0.87306400
     2  S          0.31315200       0.80855600       0.62693600
     3  S          0.31315200       0.69144400       0.12693600
     4  S          0.68684800       0.19144400       0.37306400
     5  S          0.87711800       0.35287500       0.82797400
     6  S          0.12288200       0.85287500       0.67202600
     7  S          0.12288200       0.64712500       0.17202600
     8  S          0.87711800       0.14712500       0.32797400
     9  C          0.44613000       0.29342000       0.98629170
    10  C          0.55387000       0.79342000       0.51370830
    11  C          0.55387000       0.70658000       0.01370830
    12  C          0.44613000       0.20658000       0.48629170
    13  C          0.56993000       0.36058190       0.00705140
    14  C          0.43007000       0.86058190       0.49294860
    15  C          0.43007000       0.63941810      -0.00705140
    16  C          0.56993000       0.13941810       0.50705140
    17  C          0.57073000       0.41362000       0.07440150
    18  C          0.42927000       0.91362000       0.42559850
    19  C          0.42927000       0.58638000       0.92559850
    20  C          0.57073000       0.08638000       0.57440150
    21  H          0.49400000       0.40440000       0.10530000
    22  H          0.50600000       0.90440000       0.39470000
    23  H          0.50600000       0.59560000       0.89470000
    24  H          0.49400000       0.09560000       0.60530000
    25  C          0.68043000       0.47873000       0.09666170
    26  C          0.31957000       0.97873000       0.40333830
    27  C          0.31957000       0.52127000       0.90333830
    28  C          0.68043000       0.02127000       0.59666170
    29  H          0.67850000       0.51310000       0.14190000
    30  H          0.32150000       0.01310000       0.35810000
    31  H          0.32150000       0.48690000       0.85810000
    32  H          0.67850000       0.98690000       0.64190000
    33  C          0.79293000       0.49233000       0.05094190
    34  C          0.20707000      -0.00767000       0.44905810
    35  C          0.20707000       0.50767000       0.94905810
    36  C          0.79293000       0.00767000       0.55094190
    37  H          0.86780000       0.53670000       0.06510000
    38  H          0.13220000       0.03670000       0.43490000
    39  H          0.13220000       0.46330000       0.93490000
    40  H          0.86780000       0.96330000       0.56510000
    41  C          0.79633000       0.44062000       0.98397170
    42  C          0.20367000       0.94062000       0.51602830
    43  C          0.20367000       0.55938000       0.01602830
    44  C          0.79633000       0.05938000       0.48397170
    45  H          0.87370000       0.45080000       0.95370000
    46  H          0.12630000       0.95080000       0.54630000
    47  H          0.12630000       0.54920000       0.04630000
    48  H          0.87370000       0.04920000       0.45370000
    49  C          0.68643000       0.37382000       0.96089140
    50  C          0.31357000       0.87382000       0.53910860
    51  C          0.31357000       0.62618000       0.03910860
    52  C          0.68643000       0.12618000       0.46089140
    53  C          0.83573000       0.47331190       0.78607140
    54  C          0.16427000       0.97331190       0.71392860
    55  C          0.16427000       0.52668810       0.21392860
    56  C          0.83573000       0.02668810       0.28607140
    57  C          0.70053000       0.51842000       0.79205150
    58  C          0.29947000       0.01842000       0.70794850
    59  C          0.29947000       0.48158000       0.20794850
    60  C          0.70053000       0.98158000       0.29205150
    61  H          0.63020000       0.48540000       0.81820000
    62  H          0.36980000       0.98540000       0.68180000
    63  H          0.36980000       0.51460000       0.18180000
    64  H          0.63020000       0.01460000       0.31820000
    65  C          0.66873000       0.61082000       0.76014160
    66  C          0.33127000       0.11082000       0.73985840
    67  C          0.33127000       0.38918000       0.23985840
    68  C          0.66873000       0.88918000       0.26014160
    69  H          0.57660000       0.63850000       0.76390000
    70  H          0.42340000       0.13850000       0.73610000
    71  H          0.42340000       0.36150000       0.23610000
    72  H          0.57660000       0.86150000       0.26390000
    73  C          0.77183000       0.66282000       0.72256160
    74  C          0.22817000       0.16282000       0.77743840
    75  C          0.22817000       0.33718000       0.27743840
    76  C          0.77183000       0.83718000       0.22256160
    77  H          0.75080000       0.72570000       0.70170000
    78  H          0.24920000       0.22570000       0.79830000
    79  H          0.24920000       0.27430000       0.29830000
    80  H          0.75080000       0.77430000       0.20170000
    81  C          0.90663000       0.61932000       0.71665150
    82  C          0.09337000       0.11932000       0.78334850
    83  C          0.09337000       0.38068000       0.28334850
    84  C          0.90663000       0.88068000       0.21665150
    85  H          0.97710000       0.65420000       0.69190000
    86  H          0.02290000       0.15420000       0.80810000
    87  H          0.02290000       0.34580000       0.30810000
    88  H          0.97710000       0.84580000       0.19190000
    89  C          0.94033000       0.52482000       0.74655140
    90  C          0.05967000       0.02482000       0.75344860
    91  C          0.05967000       0.47518000       0.25344860
    92  C          0.94033000       0.97518000       0.24655140
    93  C          0.08483000       0.47952000       0.73485150
    94  C          0.91517000       0.97952000       0.76514850
    95  C          0.91517000       0.52048000       0.26514850
    96  C          0.08483000       0.02048000       0.23485150
    97  O          0.43772000       0.24212180       0.93084140
    98  O          0.56228000       0.74212180       0.56915860
    99  O          0.56228000       0.75787820       0.06915860
   100  O          0.43772000       0.25787820       0.43084140
   101  O          0.34493000       0.29552000       0.03516140
   102  O          0.65507000       0.79552000       0.46483860
   103  O          0.65507000       0.70448000       0.96483860
   104  O          0.34493000       0.20448000       0.53516140
   105  O          0.16313000       0.53372000       0.69107160
   106  O          0.83687000       0.03372000       0.80892840
   107  O          0.83687000       0.46628000       0.30892840
   108  O          0.16313000       0.96628000       0.19107160
   109  O          0.12552000       0.40065160       0.76232120
   110  O          0.87448000       0.90065160       0.73767880
   111  O          0.87448000       0.59934840       0.23767880
   112  O          0.12552000       0.09934840       0.26232120
   113  H          0.24650000       0.50340000       0.68330000
   114  H          0.75350000       0.00340000       0.81670000
   115  H          0.75350000       0.49660000       0.31670000
   116  H          0.24650000      -0.00340000       0.18330000
   117  H          0.27050000       0.26240000       0.01930000
   118  H          0.72950000       0.76240000       0.48070000
   119  H          0.72950000       0.73760000       0.98070000
   120  H          0.27050000       0.23760000       0.51930000
   121  C          0.03854000       0.26143000       0.59545190
   122  C          0.96146000       0.76143000       0.90454810
   123  C          0.96146000       0.73857000       0.40454810
   124  C          0.03854000       0.23857000       0.09545190
   125  H          0.09660000       0.21770000       0.62480000
   126  H          0.90340000       0.71770000       0.87520000
   127  H          0.90340000       0.78230000       0.37520000
   128  H          0.09660000       0.28230000       0.12480000
   129  C          0.00034000       0.35323000       0.48949190
   130  C         -0.00034000       0.85323000       0.01050810
   131  C         -0.00034000       0.64677000       0.51050810
   132  C          0.00034000       0.14677000       0.98949190
   133  H          0.03080000       0.37490000       0.44350000
   134  H          0.96920000       0.87490000       0.05650000
   135  H          0.96920000       0.62510000       0.55650000
   136  H          0.03080000       0.12510000       0.94350000
   137  C          0.90773000       0.29073000       0.62130170
   138  C          0.09227000       0.79073000       0.87869830
   139  C          0.09227000       0.70927000       0.37869830
   140  C          0.90773000       0.20927000       0.12130170
   141  H          0.87920000       0.26710000       0.66710000
   142  H          0.12080000       0.76710000       0.83290000
   143  H          0.12080000       0.73290000       0.33290000
   144  H          0.87920000       0.23290000       0.16710000
   145  C          0.86763000       0.38603000       0.51145170
   146  C          0.13237000       0.88603000       0.98854830
   147  C          0.13237000       0.61397000       0.48854830
   148  C          0.86763000       0.11397000       0.01145170
   149  H          0.81100000       0.42900000       0.48070000
   150  H          0.18900000       0.92900000       0.01930000
   151  H          0.18900000       0.57100000       0.51930000
   152  H          0.81100000       0.07100000       0.98070000
   153  C          0.81863000       0.35522000       0.57926150
   154  C          0.18137000       0.85522000       0.92073850
   155  C          0.18137000       0.64478000       0.42073850
   156  C          0.81863000       0.14478000       0.07926150
   157  C          0.67713000       0.39072000       0.60615150
   158  C          0.32287000       0.89072000       0.89384850
   159  C          0.32287000       0.60928000       0.39384850
   160  C          0.67713000       0.10928000       0.10615150
   161  C          0.62103000       0.48442000       0.58595160
   162  C          0.37897000       0.98442000       0.91404840
   163  C          0.37897000       0.51558000       0.41404840
   164  C          0.62103000       0.01558000       0.08595160
   165  H          0.67160000       0.52660000       0.55520000
   166  H          0.32840000       0.02660000       0.94480000
   167  H          0.32840000       0.47340000       0.44480000
   168  H          0.67160000       0.97340000       0.05520000
   169  C          0.59673000       0.33242000       0.65303180
   170  C          0.40327000       0.83242000       0.84696820
   171  C          0.40327000       0.66758000       0.34696820
   172  C          0.59673000       0.16758000       0.15303180
   173  H          0.63050000       0.26950000       0.66900000
   174  H          0.36950000       0.76950000       0.83100000
   175  H          0.36950000       0.73050000       0.33100000
   176  H          0.63050000       0.23050000       0.16900000
   177  C          0.46633000       0.36863000       0.67572000
   178  C          0.53367000       0.86863000       0.82428000
   179  C          0.53367000       0.63137000       0.32428000
   180  C          0.46633000       0.13137000       0.17572000
   181  H          0.41360000       0.32830000       0.70690000
   182  H          0.58640000       0.82830000       0.79310000
   183  H          0.58640000       0.67170000       0.29310000
   184  H          0.41360000       0.17170000       0.20690000
   185  C          0.48963000       0.51482000       0.61163170
   186  C          0.51037000       0.01482000       0.88836830
   187  C          0.51037000       0.48518000       0.38836830
   188  C          0.48963000       0.98518000       0.11163170
   189  H          0.45370000       0.57810000       0.59770000
   190  H          0.54630000       0.07810000       0.90230000
   191  H          0.54630000       0.42190000       0.40230000
   192  H          0.45370000       0.92190000       0.09770000
   193  N          0.08663000       0.29222000       0.53039150
   194  N          0.91337000       0.79222000       0.96960850
   195  N          0.91337000       0.70778000       0.46960850
   196  N          0.08663000       0.20778000       0.03039150
   197  N          0.41212000       0.45752000       0.65544150
   198  N          0.58788000       0.95752000       0.84455850
   199  N          0.58788000       0.54248000       0.34455850
   200  N          0.41212000       0.04248000       0.15544150
