data_MUFWUF
_symmetry_space_group_name_H-M    'P1'
_symmetry_Int_Tables_number       1
loop_
_symmetry_equiv_pos_site_id
_symmetry_equiv_pos_as_xyz
1 x,y,z
_cell_length_a                   11.13701
_cell_length_b                   18.6082
_cell_length_c                   13.3555
_cell_angle_alpha                90.0
_cell_angle_beta                 112.622
_cell_angle_gamma                90.0
loop_
_atom_site_label
_atom_site_type_symbol
_atom_site_fract_x
_atom_site_fract_y
_atom_site_fract_z
     1  N          0.09499000       0.69505000       0.64197000
     2  N          0.40501000       0.19505000       0.85803000
     3  N          0.90501000       0.30495000       0.35803000
     4  N          0.59499000       0.80495000       0.14197000
     5  C          0.16561200       0.72287000       0.59361000
     6  C          0.33438800       0.22287000       0.90639000
     7  C          0.83438800       0.27713000       0.40639000
     8  C          0.66561200       0.77713000       0.09361000
     9  H          0.21100000       0.69180000       0.56490000
    10  H          0.28900000       0.19180000       0.93510000
    11  H          0.78900000       0.30820000       0.43510000
    12  H          0.71100000       0.80820000       0.06490000
    13  C          0.17631200       0.79477000       0.58291000
    14  C          0.32368800       0.29477000       0.91709000
    15  C          0.82368800       0.20523000       0.41709000
    16  C          0.67631200       0.70523000       0.08291000
    17  H          0.22580000       0.81270000       0.54530000
    18  H          0.27420000       0.31270000       0.95470000
    19  H          0.77420000       0.18730000       0.45470000
    20  H          0.72580000       0.68730000       0.04530000
    21  C          0.11311200       0.84238000       0.62839000
    22  C          0.38688800       0.34238000       0.87161000
    23  C          0.88688800       0.15762000       0.37161000
    24  C          0.61311200       0.65762000       0.12839000
    25  H          0.12290000       0.89220000       0.62440000
    26  H          0.37710000       0.39220000       0.87560000
    27  H          0.87710000       0.10780000       0.37560000
    28  H          0.62290000       0.60780000       0.12440000
    29  C          0.96598900       0.85556000       0.72529000
    30  C          0.53401100       0.35556000       0.77471000
    31  C          0.03401100       0.14444000       0.27471000
    32  C          0.46598900       0.64444000       0.22529000
    33  H          0.97250000       0.90580000       0.72310000
    34  H          0.52750000       0.40580000       0.77690000
    35  H          0.02750000       0.09420000       0.27690000
    36  H          0.47250000       0.59420000       0.22310000
    37  C          0.88938900       0.82596000       0.77289000
    38  C          0.61061100       0.32596000       0.72711000
    39  C          0.11061100       0.17404000       0.22711000
    40  C          0.38938900       0.67404000       0.27289000
    41  H          0.84210000       0.85580000       0.80110000
    42  H          0.65790000       0.35580000       0.69890000
    43  H          0.15790000       0.14420000       0.19890000
    44  H          0.34210000       0.64420000       0.30110000
    45  C          0.80188900       0.71458000       0.82559000
    46  C          0.69811100       0.21458000       0.67441000
    47  C          0.19811100       0.28542000       0.17441000
    48  C          0.30188900       0.78542000       0.32559000
    49  H          0.75280000       0.74210000       0.85500000
    50  H          0.74720000       0.24210000       0.64500000
    51  H          0.24720000       0.25790000       0.14500000
    52  H          0.25280000       0.75790000       0.35500000
    53  C          0.79618800       0.64227000       0.82709000
    54  C          0.70381200       0.14227000       0.67291000
    55  C          0.20381200       0.35773000       0.17291000
    56  C          0.29618800       0.85773000       0.32709000
    57  H          0.74570000       0.61840000       0.85920000
    58  H          0.75430000       0.11840000       0.64080000
    59  H          0.25430000       0.38160000       0.14080000
    60  H          0.24570000       0.88160000       0.35920000
    61  C          0.86848800       0.60346000       0.77869000
    62  C          0.63151200       0.10346000       0.72131000
    63  C          0.13151200       0.39654000       0.22131000
    64  C          0.36848800       0.89654000       0.27869000
    65  H          0.86240000       0.55310000       0.77780000
    66  H          0.63760000       0.05310000       0.72220000
    67  H          0.13760000       0.44690000       0.22220000
    68  H          0.36240000       0.94690000       0.27780000
    69  N          0.94382000       0.63284000       0.73467000
    70  N          0.55618000       0.13284000       0.76533000
    71  N          0.05618000       0.36716000       0.26533000
    72  N          0.44382000       0.86716000       0.23467000
    73  C          0.94959000       0.70545000       0.73528000
    74  C          0.55041000       0.20545000       0.76472000
    75  C          0.05041000       0.29455000       0.26472000
    76  C          0.44959000       0.79455000       0.23528000
    77  C          0.88029000       0.74826000       0.78028000
    78  C          0.61971000       0.24826000       0.71972000
    79  C          0.11971000       0.25174000       0.21972000
    80  C          0.38029000       0.75174000       0.28028000
    81  C          0.02841100       0.73716000       0.68209000
    82  C          0.47158900       0.23716000       0.81791000
    83  C          0.97158900       0.26284000       0.31791000
    84  C          0.52841100       0.76284000       0.18209000
    85  C          0.03491100       0.81336000       0.67969000
    86  C          0.46508900       0.31336000       0.82031000
    87  C          0.96508900       0.18664000       0.32031000
    88  C          0.53491100       0.68664000       0.17969000
    89  N          0.04351500       0.57778000       0.63441200
    90  N          0.45648500       0.07778000       0.86558800
    91  N          0.95648500       0.42222000       0.36558800
    92  N          0.54351500       0.92222000       0.13441200
    93  O          0.12131200       0.54937000       0.68151200
    94  O          0.37868800       0.04937000       0.81848800
    95  O          0.87868800       0.45063000       0.31848800
    96  O          0.62131200       0.95063000       0.18151200
    97  B          0.07391900       0.59287000       0.35671300
    98  B          0.42608100       0.09287000       0.14328700
    99  B          0.92608100       0.40713000       0.64328700
   100  B          0.57391900       0.90713000       0.85671300
   101  F          0.20451700       0.59731400       0.38320000
   102  F          0.29548300       0.09731400       0.11680000
   103  F          0.79548300       0.40268600       0.61680000
   104  F          0.70451700       0.90268600       0.88320000
   105  F          0.03020000       0.55726000       0.26711100
   106  F          0.46980000       0.05726000       0.23288900
   107  F          0.96980000       0.44274000       0.73288900
   108  F          0.53020000       0.94274000       0.76711100
   109  F          0.05020000       0.66155000       0.34861000
   110  F          0.44980000       0.16155000       0.15139000
   111  F          0.94980000       0.33845000       0.65139000
   112  F          0.55020000       0.83845000       0.84861000
   113  F          0.06261000       0.56175000       0.44237000
   114  F          0.43739000       0.06175000       0.05763000
   115  F          0.93739000       0.43825000       0.55763000
   116  F          0.56261000       0.93825000       0.94237000
   117  N          0.25049000       0.67005000       0.95413000
   118  N          0.24951000       0.17005000       0.54587000
   119  N          0.74951000       0.32995000       0.04587000
   120  N          0.75049000       0.82995000       0.45413000
   121  C          0.25321300       0.59687000       0.96179000
   122  C          0.24678700       0.09687000       0.53821000
   123  C          0.74678700       0.40313000       0.03821000
   124  C          0.75321300       0.90313000       0.46179000
   125  H          0.30390000       0.57100000       0.93190000
   126  H          0.19610000       0.07100000       0.56810000
   127  H          0.69610000       0.42900000       0.06810000
   128  H          0.80390000       0.92900000       0.43190000
   129  C          0.18681400       0.56038000       0.01021100
   130  C          0.31318600       0.06038000       0.48978900
   131  C          0.81318600       0.43962000      -0.01021100
   132  C          0.68681400       0.93962000       0.51021100
   133  H          0.19070000       0.50980000       0.01220000
   134  H          0.30930000       0.00980000       0.48780000
   135  H          0.80930000       0.49020000       0.98780000
   136  H          0.69070000       0.99020000       0.51220000
   137  C          0.11311200       0.59548000       0.05661000
   138  C          0.38688800       0.09548000       0.44339000
   139  C          0.88688800       0.40452000       0.94339000
   140  C          0.61311200       0.90452000       0.55661000
   141  H          0.06830000       0.56950000       0.09190000
   142  H          0.43170000       0.06950000       0.40810000
   143  H          0.93170000       0.43050000       0.90810000
   144  H          0.56830000       0.93050000       0.59190000
   145  C          0.03031100       0.71198000       0.09661000
   146  C          0.46968900       0.21198000       0.40339000
   147  C          0.96968900       0.28802000       0.90339000
   148  C          0.53031100       0.78802000       0.59661000
   149  H          0.98130000       0.68830000       0.13030000
   150  H          0.51870000       0.18830000       0.36970000
   151  H          0.01870000       0.31170000       0.86970000
   152  H          0.48130000       0.81170000       0.63030000
   153  C          0.03021300       0.78518000       0.09121000
   154  C          0.46978700       0.28518000       0.40879000
   155  C          0.96978700       0.21482000       0.90879000
   156  C          0.53021300       0.71482000       0.59121000
   157  H          0.98140000       0.81190000       0.12210000
   158  H          0.51860000       0.31190000       0.37790000
   159  H          0.01860000       0.18810000       0.87790000
   160  H          0.48140000       0.68810000       0.62210000
   161  C          0.10461400       0.89828000       0.03311100
   162  C          0.39538600       0.39828000       0.46688900
   163  C          0.89538600       0.10172000       0.96688900
   164  C          0.60461400       0.60172000       0.53311100
   165  H          0.05570000       0.92700000       0.06120000
   166  H          0.44430000       0.42700000       0.43880000
   167  H          0.94430000       0.07300000       0.93880000
   168  H          0.55570000       0.57300000       0.56120000
   169  C          0.17861700       0.92679000       0.98558700
   170  C          0.32138300       0.42679000       0.51441300
   171  C          0.82138300       0.07321000       0.01441300
   172  C          0.67861700       0.57321000       0.48558700
   173  H          0.18260000       0.97710000       0.98180000
   174  H          0.31740000       0.47710000       0.51820000
   175  H          0.81740000       0.02290000       0.01820000
   176  H          0.68260000       0.52290000       0.48180000
   177  C          0.24831300       0.88748000       0.94249000
   178  C          0.25168700       0.38748000       0.55751000
   179  C          0.75168700       0.11252000       0.05751000
   180  C          0.74831300       0.61252000       0.44249000
   181  H          0.29900000       0.91090000       0.91020000
   182  H          0.20100000       0.41090000       0.58980000
   183  H          0.70100000       0.08910000       0.08980000
   184  H          0.79900000       0.58910000       0.41020000
   185  N          0.24699000       0.81505000       0.94443000
   186  N          0.25301000       0.31505000       0.55557000
   187  N          0.75301000       0.18495000       0.05557000
   188  N          0.74699000       0.68495000       0.44443000
   189  C          0.17601100       0.78486000      -0.00698000
   190  C          0.32398900       0.28486000       0.50698000
   191  C          0.82398900       0.21514000       0.00698000
   192  C          0.67601100       0.71514000       0.49302000
   193  C          0.10281100       0.82126000       0.03979000
   194  C          0.39718900       0.32126000       0.46021000
   195  C          0.89718900       0.17874000       0.96021000
   196  C          0.60281100       0.67874000       0.53979000
   197  C          0.17781100       0.70506000      -0.00048000
   198  C          0.32218900       0.20506000       0.50048000
   199  C          0.82218900       0.29494000       0.00048000
   200  C          0.67781100       0.79494000       0.49952000
   201  C          0.10571100       0.67126000       0.05048000
   202  C          0.39428900       0.17126000       0.44952000
   203  C          0.89428900       0.32874000       0.94952000
   204  C          0.60571100       0.82874000       0.55048000
   205  N          0.39351800       0.74057000       0.90618700
   206  N          0.10648200       0.24057000       0.59381300
   207  N          0.60648200       0.25943000       0.09381300
   208  N          0.89351800       0.75943000       0.40618700
   209  O          0.35951500       0.74348000       0.83368800
   210  O          0.14048500       0.24348000       0.66631200
   211  O          0.64048500       0.25652000       0.16631200
   212  O          0.85951500       0.75652000       0.33368800
   213  B          0.95688600       0.93897000       0.28401200
   214  B          0.54311400       0.43897000       0.21598800
   215  B          0.04311400       0.06103000       0.71598800
   216  B          0.45688600       0.56103000       0.78401200
   217  F          0.87618800       0.89127000       0.21231200
   218  F          0.62381200       0.39127000       0.28768800
   219  F          0.12381200       0.10873000       0.78768800
   220  F          0.37618800       0.60873000       0.71231200
   221  F          0.02271300       0.90119000       0.37401100
   222  F          0.47728700       0.40119000       0.12598900
   223  F          0.97728700       0.09881000       0.62598900
   224  F          0.52271300       0.59881000       0.87401100
   225  F          0.87961000       0.99004000       0.29958000
   226  F          0.62039000       0.49004000       0.20042000
   227  F          0.12039000       0.00996000       0.70042000
   228  F          0.37961000       0.50996000       0.79958000
   229  F          0.03829000       0.96294000       0.24147000
   230  F          0.46171000       0.46294000       0.25853000
   231  F          0.96171000       0.03706000       0.75853000
   232  F          0.53829000       0.53706000       0.74147000
