data_MUGCEX
_symmetry_space_group_name_H-M    'P1'
_symmetry_Int_Tables_number       1
loop_
_symmetry_equiv_pos_site_id
_symmetry_equiv_pos_as_xyz
1 x,y,z
_cell_length_a                   8.49344
_cell_length_b                   40.5672
_cell_length_c                   8.96467
_cell_angle_alpha                90.0
_cell_angle_beta                 112.7066
_cell_angle_gamma                90.0
loop_
_atom_site_label
_atom_site_type_symbol
_atom_site_fract_x
_atom_site_fract_y
_atom_site_fract_z
     1  S          0.85567160       0.82148300       0.27696170
     2  S          0.64432840       0.32148300       0.72303830
     3  S          0.14432840       0.17851700       0.72303830
     4  S          0.35567160       0.67851700       0.27696170
     5  Cl         0.29933000       0.75091400       0.84543000
     6  Cl         0.20067000       0.25091400       0.15457000
     7  Cl         0.70067000       0.24908600       0.15457000
     8  Cl         0.79933000       0.74908600       0.84543000
     9  O          0.84775000       0.84154900       0.14434000
    10  O          0.65225000       0.34154900       0.85566000
    11  O          0.15225000       0.15845100       0.85566000
    12  O          0.34775000       0.65845100       0.14434000
    13  O          0.91175000       0.78819800       0.28625000
    14  O          0.58825000       0.28819800       0.71375000
    15  O          0.08825000       0.21180200       0.71375000
    16  O          0.41175000       0.71180200       0.28625000
    17  O          0.89454000       0.87284700       0.66694000
    18  O          0.60546000       0.37284700       0.33306000
    19  O          0.10546000       0.12715300       0.33306000
    20  O          0.39454000       0.62715300       0.66694000
    21  N         -0.01475000       0.84065100       0.43655000
    22  N          0.51475000       0.34065100       0.56345000
    23  N          0.01475000       0.15934900       0.56345000
    24  N          0.48525000       0.65934900       0.43655000
    25  C          0.65656000       0.82069110       0.29356000
    26  C          0.84344000       0.32069110       0.70644000
    27  C          0.34344000       0.17930890       0.70644000
    28  C          0.15656000       0.67930890       0.29356000
    29  C          0.56966000       0.84971110       0.29506000
    30  C          0.93034000       0.34971110       0.70494000
    31  C          0.43034000       0.15028890       0.70494000
    32  C          0.06966000       0.65028890       0.29506000
    33  C          0.41636000       0.84884120       0.31416000
    34  C          0.08364000       0.34884120       0.68584000
    35  C          0.58364000       0.15115880       0.68584000
    36  C          0.91636000       0.65115880       0.31416000
    37  H          0.35720000       0.86820000       0.31310000
    38  H          0.14280000       0.36820000       0.68690000
    39  H          0.64280000       0.13180000       0.68690000
    40  H          0.85720000       0.63180000       0.31310000
    41  C          0.35277000       0.81907140       0.33477000
    42  C          0.14723000       0.31907140       0.66523000
    43  C          0.64723000       0.18092860       0.66523000
    44  C          0.85277000       0.68092860       0.33477000
    45  H          0.24860000       0.81840000       0.34640000
    46  H          0.25140000       0.31840000       0.65360000
    47  H          0.75140000       0.18160000       0.65360000
    48  H          0.74860000       0.68160000       0.34640000
    49  C          0.43667000       0.79019140       0.33868000
    50  C          0.06333000       0.29019140       0.66132000
    51  C          0.56333000       0.20980860       0.66132000
    52  C          0.93667000       0.70980860       0.33868000
    53  H          0.39190000       0.77030000       0.35590000
    54  H          0.10810000       0.27030000       0.64410000
    55  H          0.60810000       0.22970000       0.64410000
    56  H          0.89190000       0.72970000       0.35590000
    57  C          0.58847000       0.79091120       0.31657000
    58  C          0.91153000       0.29091120       0.68343000
    59  C          0.41153000       0.20908880       0.68343000
    60  C          0.08847000       0.70908880       0.31657000
    61  H          0.64560000       0.77130000       0.31700000
    62  H          0.85440000       0.27130000       0.68300000
    63  H          0.35440000       0.22870000       0.68300000
    64  H          0.14560000       0.72870000       0.31700000
    65  C          0.03226000       0.82758110       0.59476000
    66  C          0.46774000       0.32758110       0.40524000
    67  C          0.96774000       0.17241890       0.40524000
    68  C          0.53226000       0.67241890       0.59476000
    69  C         -0.00684000       0.84407120       0.71187000
    70  C          0.50684000       0.34407120       0.28813000
    71  C          0.00684000       0.15592880       0.28813000
    72  C          0.49316000       0.65592880       0.71187000
    73  C          0.05427000       0.83302130       0.87137000
    74  C          0.44573000       0.33302130       0.12863000
    75  C          0.94573000       0.16697870       0.12863000
    76  C          0.55427000       0.66697870       0.87137000
    77  H          0.03290000       0.84490000       0.95030000
    78  H          0.46710000       0.34490000       0.04970000
    79  H          0.96710000       0.15510000       0.04970000
    80  H          0.53290000       0.65510000       0.95030000
    81  C          0.14728000       0.80404150       0.90948000
    82  C          0.35272000       0.30404150       0.09052000
    83  C          0.85272000       0.19595850       0.09052000
    84  C          0.64728000       0.69595850       0.90948000
    85  H          0.18740000       0.79610000       0.01490000
    86  H          0.31260000       0.29610000      -0.01490000
    87  H          0.81260000       0.20390000      -0.01490000
    88  H          0.68740000       0.70390000       0.01490000
    89  C          0.18027000       0.78710140       0.79348000
    90  C          0.31973000       0.28710140       0.20652000
    91  C          0.81973000       0.21289860       0.20652000
    92  C          0.68027000       0.71289860       0.79348000
    93  C          0.12806000       0.79852120       0.63797000
    94  C          0.37194000       0.29852120       0.36203000
    95  C          0.87194000       0.20147880       0.36203000
    96  C          0.62806000       0.70147880       0.63797000
    97  H          0.15600000       0.78710000       0.56170000
    98  H          0.34400000       0.28710000       0.43830000
    99  H          0.84400000       0.21290000       0.43830000
   100  H          0.65600000       0.71290000       0.56170000
   101  S          0.73636170       0.94045300       0.62494160
   102  S          0.76363830       0.44045300       0.37505840
   103  S          0.26363830       0.05954700       0.37505840
   104  S          0.23636170       0.55954700       0.62494160
   105  Cl         0.26102000      -0.00198600       0.00812000
   106  Cl         0.23898000       0.49801400      -0.00812000
   107  Cl         0.73898000       0.00198600      -0.00812000
   108  Cl         0.76102000       0.50198600       0.00812000
   109  O          0.90744000       0.94430800       0.74094000
   110  O          0.59256000       0.44430800       0.25906000
   111  O          0.09256000       0.05569200       0.25906000
   112  O          0.40744000       0.55569200       0.74094000
   113  O          0.61195000       0.96521800       0.60905000
   114  O          0.88805000       0.46521800       0.39095000
   115  O          0.38805000       0.03478200       0.39095000
   116  O          0.11195000       0.53478200       0.60905000
   117  O          0.65074000       0.87863700       0.28594000
   118  O          0.84926000       0.37863700       0.71406000
   119  O          0.34926000       0.12136300       0.71406000
   120  O          0.15074000       0.62136300       0.28594000
   121  N          0.75055000       0.93729100       0.45125000
   122  N          0.74945000       0.43729100       0.54875000
   123  N          0.24945000       0.06270900       0.54875000
   124  N          0.25055000       0.56270900       0.45125000
   125  C          0.65396000       0.90296120       0.66456000
   126  C          0.84604000       0.40296120       0.33544000
   127  C          0.34604000       0.09703880       0.33544000
   128  C          0.15396000       0.59703880       0.66456000
   129  C          0.73906000       0.87297120       0.68526000
   130  C          0.76094000       0.37297120       0.31474000
   131  C          0.26094000       0.12702880       0.31474000
   132  C          0.23906000       0.62702880       0.68526000
   133  C          0.66747000       0.84471130       0.71846000
   134  C          0.83253000       0.34471130       0.28154000
   135  C          0.33253000       0.15528870       0.28154000
   136  C          0.16747000       0.65528870       0.71846000
   137  H          0.72410000       0.82460000       0.73150000
   138  H          0.77590000       0.32460000       0.26850000
   139  H          0.27590000       0.17540000       0.26850000
   140  H          0.22410000       0.67540000       0.73150000
   141  C          0.50958000       0.84653170       0.73207000
   142  C         -0.00958000       0.34653170       0.26793000
   143  C          0.49042000       0.15346830       0.26793000
   144  C          0.00958000       0.65346830       0.73207000
   145  H          0.46250000       0.82770000       0.75730000
   146  H          0.03750000       0.32770000       0.24270000
   147  H          0.53750000       0.17230000       0.24270000
   148  H          0.96250000       0.67230000       0.75730000
   149  C          0.42318000       0.87572180       0.70877000
   150  C          0.07682000       0.37572180       0.29123000
   151  C          0.57682000       0.12427820       0.29123000
   152  C          0.92318000       0.62427820       0.70877000
   153  H          0.31630000       0.87650000       0.71480000
   154  H          0.18370000       0.37650000       0.28520000
   155  H          0.68370000       0.12350000       0.28520000
   156  H          0.81630000       0.62350000       0.71480000
   157  C          0.49457000       0.90410150       0.67596000
   158  C          0.00543000       0.40410150       0.32404000
   159  C          0.50543000       0.09589850       0.32404000
   160  C         -0.00543000       0.59589850       0.67596000
   161  H          0.43610000       0.92400000       0.66150000
   162  H          0.06390000       0.42400000       0.33850000
   163  H          0.56390000       0.07600000       0.33850000
   164  H          0.93610000       0.57600000       0.66150000
   165  C          0.60166000       0.93552110       0.30336000
   166  C          0.89834000       0.43552110       0.69664000
   167  C          0.39834000       0.06447890       0.69664000
   168  C          0.10166000       0.56447890       0.30336000
   169  C          0.55096000       0.90631110       0.21996000
   170  C          0.94904000       0.40631110       0.78004000
   171  C          0.44904000       0.09368890       0.78004000
   172  C          0.05096000       0.59368890       0.21996000
   173  C          0.41537000       0.90483130       0.07197000
   174  C          0.08463000       0.40483130       0.92803000
   175  C          0.58463000       0.09516870       0.92803000
   176  C          0.91537000       0.59516870       0.07197000
   177  H          0.38490000       0.88490000       0.01670000
   178  H          0.11510000       0.38490000      -0.01670000
   179  H          0.61510000       0.11510000      -0.01670000
   180  H          0.88490000       0.61510000       0.01670000
   181  C          0.32587000       0.93318130       0.00717000
   182  C          0.17413000       0.43318130      -0.00717000
   183  C          0.67413000       0.06681870      -0.00717000
   184  C          0.82587000       0.56681870       0.00717000
   185  H          0.23400000       0.93260000       0.90770000
   186  H          0.26600000       0.43260000       0.09230000
   187  H          0.76600000       0.06740000       0.09230000
   188  H          0.73400000       0.56740000       0.90770000
   189  C          0.37327000       0.96244120       0.09047000
   190  C          0.12673000       0.46244120       0.90953000
   191  C          0.62673000       0.03755880       0.90953000
   192  C          0.87327000       0.53755880       0.09047000
   193  C          0.51046000       0.96409120       0.23676000
   194  C         -0.01046000       0.46409120       0.76324000
   195  C          0.48954000       0.03590880       0.76324000
   196  C          0.01046000       0.53590880       0.23676000
   197  H          0.54190000       0.98410000       0.29040000
   198  H          0.95810000       0.48410000       0.70960000
   199  H          0.45810000       0.01590000       0.70960000
   200  H          0.04190000       0.51590000       0.29040000
   201  H          0.82860000       0.92601200       0.44960000
   202  H          0.67140000       0.42601200       0.55040000
   203  H          0.17140000       0.07398800       0.55040000
   204  H          0.32860000       0.57398800       0.44960000
   205  H         -0.01940000       0.86191200       0.42560000
   206  H          0.51940000       0.36191200       0.57440000
   207  H          0.01940000       0.13808800       0.57440000
   208  H          0.48060000       0.63808800       0.42560000
   209  S          0.10933180       0.92457300       0.31222000
   210  S          0.39066820       0.42457300       0.68778000
   211  S          0.89066820       0.07542700       0.68778000
   212  S          0.60933180       0.57542700       0.31222000
   213  O          0.04164000       0.90867800       0.42684000
   214  O          0.45836000       0.40867800       0.57316000
   215  O          0.95836000       0.09132200       0.57316000
   216  O          0.54164000       0.59132200       0.42684000
   217  C          0.11999000       0.96726150       0.35521000
   218  C          0.38001000       0.46726150       0.64479000
   219  C          0.88001000       0.03273850       0.64479000
   220  C          0.61999000       0.53273850       0.35521000
   221  H          0.21040000       0.97140000       0.45810000
   222  H          0.28960000       0.47140000       0.54190000
   223  H          0.78960000       0.02860000       0.54190000
   224  H          0.71040000       0.52860000       0.45810000
   225  H          0.01350000       0.97440000       0.35830000
   226  H          0.48650000       0.47440000       0.64170000
   227  H         -0.01350000       0.02560000       0.64170000
   228  H          0.51350000       0.52560000       0.35830000
   229  H          0.14170000       0.97920000       0.27260000
   230  H          0.35830000       0.47920000       0.72740000
   231  H          0.85830000       0.02080000       0.72740000
   232  H          0.64170000       0.52080000       0.27260000
   233  C          0.93709000       0.92524160       0.12268000
   234  C          0.56291000       0.42524160       0.87732000
   235  C          0.06291000       0.07475840       0.87732000
   236  C          0.43709000       0.57475840       0.12268000
   237  H          0.91340000       0.90320000       0.08070000
   238  H          0.58660000       0.40320000       0.91930000
   239  H          0.08660000       0.09680000       0.91930000
   240  H          0.41340000       0.59680000       0.08070000
   241  H          0.96600000       0.93880000       0.04900000
   242  H          0.53400000       0.43880000       0.95100000
   243  H          0.03400000       0.06120000       0.95100000
   244  H          0.46600000       0.56120000       0.04900000
   245  H          0.83790000       0.93410000       0.13490000
   246  H          0.66210000       0.43410000       0.86510000
   247  H          0.16210000       0.06590000       0.86510000
   248  H          0.33790000       0.56590000       0.13490000
