data_MUJHOQ
_symmetry_space_group_name_H-M    'P1'
_symmetry_Int_Tables_number       1
loop_
_symmetry_equiv_pos_site_id
_symmetry_equiv_pos_as_xyz
1 x,y,z
_cell_length_a                   9.46344
_cell_length_b                   13.85446
_cell_length_c                   16.25268
_cell_angle_alpha                90.0
_cell_angle_beta                 95.5063
_cell_angle_gamma                90.0
loop_
_atom_site_label
_atom_site_type_symbol
_atom_site_fract_x
_atom_site_fract_y
_atom_site_fract_z
     1  Cl         0.21776000       0.12244000       0.45973000
     2  Cl         0.78224000       0.62244000       0.04027000
     3  Cl         0.78224000       0.87756000       0.54027000
     4  Cl         0.21776000       0.37756000       0.95973000
     5  O          0.49886000       0.18774000       0.54273000
     6  O          0.50114000       0.68774000       0.95727000
     7  O          0.50114000       0.81226000       0.45727000
     8  O          0.49886000       0.31226000       0.04273000
     9  O          0.26456000       0.91336000       0.42623000
    10  O          0.73544000       0.41336000       0.07377000
    11  O          0.73544000       0.08664000       0.57377000
    12  O          0.26456000       0.58664000       0.92623000
    13  C          0.37336000       0.05554000       0.48143000
    14  C          0.62664000       0.55554000       0.01857000
    15  C          0.62664000       0.94446000       0.51857000
    16  C          0.37336000       0.44446000       0.98143000
    17  C          0.49406000       0.10154000       0.52093000
    18  C          0.50594000       0.60154000       0.97907000
    19  C          0.50594000       0.89846000       0.47907000
    20  C          0.49406000       0.39846000       0.02093000
    21  C          0.37066000       0.95886000       0.45963000
    22  C          0.62934000       0.45886000       0.04037000
    23  C          0.62934000       0.04114000       0.54037000
    24  C          0.37066000       0.54114000       0.95963000
    25  Cl         0.49156000       0.40844000       0.26793000
    26  Cl         0.50844000       0.90844000       0.23207000
    27  Cl         0.50844000       0.59156000       0.73207000
    28  Cl         0.49156000       0.09156000       0.76793000
    29  N          0.74896000       0.27884000       0.61843000
    30  N          0.25104000       0.77884000       0.88157000
    31  N          0.25104000       0.72116000       0.38157000
    32  N          0.74896000       0.22116000       0.11843000
    33  N          0.84586000       0.35804000       0.47153000
    34  N          0.15414000       0.85804000       0.02847000
    35  N          0.15414000       0.64196000       0.52847000
    36  N          0.84586000       0.14196000       0.97153000
    37  N          0.00966000       0.36084000       0.37753000
    38  N         -0.00966000       0.86084000       0.12247000
    39  N         -0.00966000       0.63916000       0.62247000
    40  N          0.00966000       0.13916000       0.87753000
    41  N          0.86656000       0.45814000       0.23773000
    42  N          0.13344000       0.95814000       0.26227000
    43  N          0.13344000       0.54186000       0.76227000
    44  N          0.86656000       0.04186000       0.73773000
    45  C          0.80076000       0.56164000       0.43953000
    46  C          0.19924000       0.06164000       0.06047000
    47  C          0.19924000       0.43836000       0.56047000
    48  C          0.80076000       0.93836000       0.93953000
    49  C          0.69496000       0.36114000       0.48473000
    50  C          0.30504000       0.86114000       0.01527000
    51  C          0.30504000       0.63886000       0.51527000
    52  C          0.69496000       0.13886000       0.98473000
    53  C          0.01716000       0.44454000       0.24373000
    54  C          0.98284000       0.94454000       0.25627000
    55  C          0.98284000       0.55546000       0.75627000
    56  C          0.01716000       0.05546000       0.74373000
    57  C          0.08456000       0.40174000       0.31513000
    58  C          0.91544000       0.90174000       0.18487000
    59  C          0.91544000       0.59826000       0.68487000
    60  C          0.08456000       0.09826000       0.81513000
    61  C          0.90086000       0.40124000       0.40563000
    62  C          0.09914000       0.90124000       0.09437000
    63  C          0.09914000       0.59876000       0.59437000
    64  C          0.90086000       0.09876000       0.90563000
    65  C          0.84066000       0.49604000       0.37983000
    66  C          0.15934000      -0.00396000       0.12017000
    67  C          0.15934000       0.50396000       0.62017000
    68  C          0.84066000       0.00396000       0.87983000
    69  C          0.09356000       0.47184000       0.18033000
    70  C          0.90644000       0.97184000       0.31967000
    71  C          0.90644000       0.52816000       0.81967000
    72  C          0.09356000       0.02816000       0.68033000
    73  C          0.81806000       0.52114000       0.29753000
    74  C          0.18194000       0.02114000       0.20247000
    75  C          0.18194000       0.47886000       0.70247000
    76  C          0.81806000       0.97886000       0.79753000
    77  C          0.23146000       0.38874000       0.32043000
    78  C          0.76854000       0.88874000       0.17957000
    79  C          0.76854000       0.61126000       0.67957000
    80  C          0.23146000       0.11126000       0.82043000
    81  C          0.30806000       0.42074000       0.25833000
    82  C          0.69194000       0.92074000       0.24167000
    83  C          0.69194000       0.57926000       0.74167000
    84  C          0.30806000       0.07926000       0.75833000
    85  C          0.91426000       0.27114000       0.50973000
    86  C          0.08574000       0.77114000       0.99027000
    87  C          0.08574000       0.72886000       0.49027000
    88  C          0.91426000       0.22886000       0.00973000
    89  C          0.67886000       0.36394000       0.57563000
    90  C          0.32114000       0.86394000       0.92437000
    91  C          0.32114000       0.63606000       0.42437000
    92  C          0.67886000       0.13606000       0.07563000
    93  C          0.90076000       0.27294000       0.60033000
    94  C          0.09924000       0.77294000       0.89967000
    95  C          0.09924000       0.72706000       0.39967000
    96  C          0.90076000       0.22706000       0.10033000
    97  C          0.73516000       0.64774000       0.41583000
    98  C          0.26484000       0.14774000       0.08417000
    99  C          0.26484000       0.35226000       0.58417000
   100  C          0.73516000       0.85226000       0.91583000
   101  C          0.75176000       0.60804000       0.27393000
   102  C          0.24824000       0.10804000       0.22607000
   103  C          0.24824000       0.39196000       0.72607000
   104  C          0.75176000       0.89196000       0.77393000
   105  C          0.70846000       0.66904000       0.33303000
   106  C          0.29154000       0.16904000       0.16697000
   107  C          0.29154000       0.33096000       0.66697000
   108  C          0.70846000       0.83096000       0.83303000
   109  C          0.24016000       0.46094000       0.18713000
   110  C          0.75984000       0.96094000       0.31287000
   111  C          0.75984000       0.53906000       0.81287000
   112  C          0.24016000       0.03906000       0.68713000
   113  C          0.73576000       0.28304000       0.70893000
   114  C          0.26424000       0.78304000       0.79107000
   115  C          0.26424000       0.71696000       0.29107000
   116  C          0.73576000       0.21696000       0.20893000
   117  H          0.82046000       0.54631000       0.49709000
   118  H          0.17954000       0.04631000       0.00291000
   119  H          0.17954000       0.45369000       0.50291000
   120  H          0.82046000       0.95369000      -0.00291000
   121  H          0.65300000       0.41704000       0.45737000
   122  H          0.34700000       0.91704000       0.04263000
   123  H          0.34700000       0.58296000       0.54263000
   124  H          0.65300000       0.08296000       0.95737000
   125  H          0.64888000       0.30404000       0.46170000
   126  H          0.35112000       0.80404000       0.03830000
   127  H          0.35112000       0.69596000       0.53830000
   128  H          0.64888000       0.19596000       0.96170000
   129  H          0.04631000       0.50010000       0.13116000
   130  H          0.95369000       0.00010000       0.36884000
   131  H          0.95369000       0.49990000       0.86884000
   132  H          0.04631000      -0.00010000       0.63116000
   133  H          0.27821000       0.35718000       0.36810000
   134  H          0.72179000       0.85718000       0.13190000
   135  H          0.72179000       0.64282000       0.63190000
   136  H          0.27821000       0.14282000       0.86810000
   137  H          0.86982000       0.21433000       0.48515000
   138  H          0.13018000       0.71433000       0.01485000
   139  H          0.13018000       0.78567000       0.51485000
   140  H          0.86982000       0.28567000       0.98515000
   141  H          0.01242000       0.27220000       0.49947000
   142  H         -0.01242000       0.77220000       0.00053000
   143  H         -0.01242000       0.72780000       0.50053000
   144  H          0.01242000       0.22780000      -0.00053000
   145  H          0.57995000       0.36446000       0.58440000
   146  H          0.42005000       0.86446000       0.91560000
   147  H          0.42005000       0.63554000       0.41560000
   148  H          0.57995000       0.13554000       0.08440000
   149  H          0.72325000       0.42163000       0.59816000
   150  H          0.27675000       0.92163000       0.90184000
   151  H          0.27675000       0.57837000       0.40184000
   152  H          0.72325000       0.07837000       0.09816000
   153  H          0.95004000       0.32928000       0.62210000
   154  H          0.04996000       0.82928000       0.87790000
   155  H          0.04996000       0.67072000       0.37790000
   156  H          0.95004000       0.17072000       0.12210000
   157  H          0.94468000       0.21625000       0.62511000
   158  H          0.05532000       0.71625000       0.87489000
   159  H          0.05532000       0.78375000       0.37489000
   160  H          0.94468000       0.28375000       0.12511000
   161  H          0.70690000       0.69163000       0.45689000
   162  H          0.29310000       0.19163000       0.04311000
   163  H          0.29310000       0.30837000       0.54311000
   164  H          0.70690000       0.80837000       0.95689000
   165  H          0.73653000       0.62366000       0.21620000
   166  H          0.26347000       0.12366000       0.28380000
   167  H          0.26347000       0.37634000       0.78380000
   168  H          0.73653000       0.87634000       0.71620000
   169  H          0.65986000       0.72770000       0.31634000
   170  H          0.34014000       0.22770000       0.18366000
   171  H          0.34014000       0.27230000       0.68366000
   172  H          0.65986000       0.77230000       0.81634000
   173  H          0.29438000       0.47944000       0.14272000
   174  H          0.70562000       0.97944000       0.35728000
   175  H          0.70562000       0.52056000       0.85728000
   176  H          0.29438000       0.02056000       0.64272000
   177  H          0.78104000       0.22722000       0.73456000
   178  H          0.21896000       0.72722000       0.76544000
   179  H          0.21896000       0.77278000       0.26544000
   180  H          0.78104000       0.27278000       0.23456000
   181  H          0.63713000       0.28328000       0.71850000
   182  H          0.36287000       0.78328000       0.78150000
   183  H          0.36287000       0.71672000       0.28150000
   184  H          0.63713000       0.21672000       0.21850000
   185  H          0.78055000       0.34034000       0.73200000
   186  H          0.21945000       0.84034000       0.76800000
   187  H          0.21945000       0.65966000       0.26800000
   188  H          0.78055000       0.15966000       0.23200000
   189  H          0.80650000       0.42582000       0.19524000
   190  H          0.19350000       0.92582000       0.30476000
   191  H          0.19350000       0.57418000       0.80476000
   192  H          0.80650000       0.07418000       0.69524000
