data_MULJEL
_symmetry_space_group_name_H-M    'P1'
_symmetry_Int_Tables_number       1
loop_
_symmetry_equiv_pos_site_id
_symmetry_equiv_pos_as_xyz
1 x,y,z
_cell_length_a                   14.93347
_cell_length_b                   7.45503
_cell_length_c                   23.224512
_cell_angle_alpha                90.0
_cell_angle_beta                 104.8085
_cell_angle_gamma                90.0
loop_
_atom_site_label
_atom_site_type_symbol
_atom_site_fract_x
_atom_site_fract_y
_atom_site_fract_z
     1  Br         0.86756200       0.16479400       0.57322200
     2  Br         0.63243800       0.66479400       0.92677800
     3  Br         0.13243800       0.83520600       0.42677800
     4  Br         0.36756200       0.33520600       0.07322200
     5  S          0.05355600      -0.00750110       0.63919400
     6  S          0.44644400       0.49249890       0.86080600
     7  S          0.94644400       0.00750110       0.36080600
     8  S          0.55355600       0.50750110       0.13919400
     9  O          0.85224150       0.09603000       0.70304100
    10  O          0.64775850       0.59603000       0.79695900
    11  O          0.14775850       0.90397000       0.29695900
    12  O          0.35224150       0.40397000       0.20304100
    13  O          0.11199170       0.13413000       0.62860110
    14  O          0.38800830       0.63413000       0.87139890
    15  O          0.88800830       0.86587000       0.37139890
    16  O          0.61199170       0.36587000       0.12860110
    17  O          0.04094170       0.84077000       0.60013110
    18  O          0.45905830       0.34077000       0.89986890
    19  O          0.95905830       0.15923000       0.39986890
    20  O          0.54094170       0.65923000       0.10013110
    21  N          0.95064180       0.07493000       0.64180120
    22  N          0.54935820       0.57493000       0.85819880
    23  N          0.04935820       0.92507000       0.35819880
    24  N          0.45064180       0.42507000       0.14180120
    25  C          0.92622000       0.05194000       0.69506150
    26  C          0.57378000       0.55194000       0.80493850
    27  C          0.07378000       0.94806000       0.30493850
    28  C          0.42622000       0.44806000       0.19506150
    29  C          0.00572000       0.96876000       0.73849150
    30  C          0.49428000       0.46876000       0.76150850
    31  C         -0.00572000       0.03124000       0.26150850
    32  C          0.50572000       0.53124000       0.23849150
    33  C          0.07972000       0.92956000       0.71469150
    34  C          0.42028000       0.42956000       0.78530850
    35  C          0.92028000       0.07044000       0.28530850
    36  C          0.57972000       0.57044000       0.21469150
    37  C          0.16042000       0.85236000       0.74740170
    38  C          0.33958000       0.35236000       0.75259830
    39  C          0.83958000       0.14764000       0.25259830
    40  C          0.66042000       0.64764000       0.24740170
    41  H          0.20920000       0.82730000       0.73050000
    42  H          0.29080000       0.32730000       0.76950000
    43  H          0.79080000       0.17270000       0.26950000
    44  H          0.70920000       0.67270000       0.23050000
    45  C          0.16593000       0.81326000       0.80697170
    46  C          0.33407000       0.31326000       0.69302830
    47  C          0.83407000       0.18674000       0.19302830
    48  C          0.66593000       0.68674000       0.30697170
    49  H          0.21940000       0.76120000       0.83050000
    50  H          0.28060000       0.26120000       0.66950000
    51  H          0.78060000       0.23880000       0.16950000
    52  H          0.71940000       0.73880000       0.33050000
    53  C          0.09322000       0.85086000       0.83129160
    54  C          0.40678000       0.35086000       0.66870840
    55  C          0.90678000       0.14914000       0.16870840
    56  C          0.59322000       0.64914000       0.33129160
    57  H          0.09840000       0.82400000       0.87110000
    58  H          0.40160000       0.32400000       0.62890000
    59  H          0.90160000       0.17600000       0.12890000
    60  H          0.59840000       0.67600000       0.37110000
    61  C          0.01152000       0.92866000       0.79736150
    62  C          0.48848000       0.42866000       0.70263850
    63  C         -0.01152000       0.07134000       0.20263850
    64  C          0.51152000       0.57134000       0.29736150
    65  H          0.96240000       0.95280000       0.81400000
    66  H          0.53760000       0.45280000       0.68600000
    67  H          0.03760000       0.04720000       0.18600000
    68  H          0.46240000       0.54720000       0.31400000
    69  Br         0.64232200       0.18842400       0.39845200
    70  Br         0.85767800       0.68842400       0.10154800
    71  Br         0.35767800       0.81157600       0.60154800
    72  Br         0.14232200       0.31157600       0.89845200
    73  S          0.44554600       0.06210110       0.33814400
    74  S          0.05445400       0.56210110       0.16185600
    75  S          0.55445400       0.93789890       0.66185600
    76  S          0.94554600       0.43789890       0.83814400
    77  O          0.63568150       0.13173000       0.26155100
    78  O          0.86431850       0.63173000       0.23844900
    79  O          0.36431850       0.86827000       0.73844900
    80  O          0.13568150       0.36827000       0.76155100
    81  O          0.40004160       0.22293000       0.34959100
    82  O          0.09995840       0.72293000       0.15040900
    83  O          0.59995840       0.77707000       0.65040900
    84  O          0.90004160       0.27707000       0.84959100
    85  O          0.45115160       0.91787000       0.37921100
    86  O          0.04884840       0.41787000       0.12078900
    87  O          0.54884840       0.08213000       0.62078900
    88  O          0.95115160       0.58213000       0.87921100
    89  N          0.55079180       0.11433000       0.33082120
    90  N          0.94920820       0.61433000       0.16917880
    91  N          0.44920820       0.88567000       0.66917880
    92  N          0.05079180       0.38567000       0.83082120
    93  C          0.56512000       0.09354000       0.27460140
    94  C          0.93488000       0.59354000       0.22539860
    95  C          0.43488000       0.90646000       0.72539860
    96  C          0.06512000       0.40646000       0.77460140
    97  C          0.47892000       0.01774000       0.23511140
    98  C          0.02108000       0.51774000       0.26488860
    99  C          0.52108000      -0.01774000       0.76488860
   100  C          0.97892000       0.48226000       0.73511140
   101  C          0.40872000      -0.00654000       0.26360140
   102  C          0.09128000       0.49346000       0.23639860
   103  C          0.59128000       0.00654000       0.73639860
   104  C          0.90872000       0.50654000       0.76360140
   105  C          0.32372000       0.91966000       0.23499160
   106  C          0.17628000       0.41966000       0.26500840
   107  C          0.67628000       0.08034000       0.76500840
   108  C          0.82372000       0.58034000       0.73499160
   109  H          0.27680000       0.90480000       0.25430000
   110  H          0.22320000       0.40480000       0.24570000
   111  H          0.72320000       0.09520000       0.74570000
   112  H          0.77680000       0.59520000       0.75430000
   113  C          0.31242000       0.86926000       0.17584160
   114  C          0.18758000       0.36926000       0.32415840
   115  C          0.68758000       0.13074000       0.82415840
   116  C          0.81242000       0.63074000       0.67584160
   117  H          0.25670000       0.81790000       0.15510000
   118  H          0.24330000       0.31790000       0.34490000
   119  H          0.74330000       0.18210000       0.84490000
   120  H          0.75670000       0.68210000       0.65510000
   121  C          0.38202000       0.89396000       0.14733150
   122  C          0.11798000       0.39396000       0.35266850
   123  C          0.61798000       0.10604000       0.85266850
   124  C          0.88202000       0.60604000       0.64733150
   125  H          0.37230000       0.85970000       0.10770000
   126  H          0.12770000       0.35970000       0.39230000
   127  H          0.62770000       0.14030000       0.89230000
   128  H          0.87230000       0.64030000       0.60770000
   129  C          0.46582000       0.96856000       0.17652150
   130  C          0.03418000       0.46856000       0.32347850
   131  C          0.53418000       0.03144000       0.82347850
   132  C          0.96582000       0.53144000       0.67652150
   133  H          0.51230000      -0.01470000       0.15700000
   134  H          0.98770000       0.48530000       0.34300000
   135  H          0.48770000       0.01470000       0.84300000
   136  H          0.01230000       0.51470000       0.65700000
   137  O          0.75143150       0.28143000       0.48850100
   138  O          0.74856850       0.78143000       0.01149900
   139  O          0.24856850       0.71857000       0.51149900
   140  O          0.25143150       0.21857000       0.98850100
   141  N          0.73810180       0.45893000       0.49421110
   142  N          0.76189820       0.95893000       0.00578890
   143  N          0.26189820       0.54107000       0.50578890
   144  N          0.23810180       0.04107000      -0.00578890
   145  C          0.79092000       0.57474000       0.47170140
   146  C          0.70908000       0.07474000       0.02829860
   147  C          0.20908000       0.42526000       0.52829860
   148  C          0.29092000       0.92526000       0.97170140
   149  C          0.77572000       0.75604000       0.47623140
   150  C          0.72428000       0.25604000       0.02376860
   151  C          0.22428000       0.24396000       0.52376860
   152  C          0.27572000       0.74396000       0.97623140
   153  H          0.81080000       0.83800000       0.46110000
   154  H          0.68920000       0.33800000       0.03890000
   155  H          0.18920000       0.16200000       0.53890000
   156  H          0.31080000       0.66200000       0.96110000
   157  C          0.70892000       0.81674000       0.50310140
   158  C          0.79108000       0.31674000      -0.00310140
   159  C          0.29108000       0.18326000       0.49689860
   160  C          0.20892000       0.68326000       0.00310140
   161  H          0.69870000       0.93910000       0.50600000
   162  H          0.80130000       0.43910000      -0.00600000
   163  H          0.30130000       0.06090000       0.49400000
   164  H          0.19870000       0.56090000       0.00600000
   165  C          0.65762000       0.69414000       0.52556150
   166  C          0.84238000       0.19414000       0.97443850
   167  C          0.34238000       0.30586000       0.47443850
   168  C          0.15762000       0.80586000       0.02556150
   169  H          0.61230000       0.73440000       0.54340000
   170  H          0.88770000       0.23440000       0.95660000
   171  H          0.38770000       0.26560000       0.45660000
   172  H          0.11230000       0.76560000       0.04340000
   173  C          0.67262000       0.51324000       0.52187150
   174  C          0.82738000       0.01324000       0.97812850
   175  C          0.32738000       0.48676000       0.47812850
   176  C          0.17262000      -0.01324000       0.02187150
   177  C          0.62273000       0.37155000       0.54694160
   178  C          0.87727000       0.87155000       0.95305840
   179  C          0.37727000       0.62845000       0.45305840
   180  C          0.12273000       0.12845000       0.04694160
   181  H          0.58770000       0.29770000       0.51520000
   182  H          0.91230000       0.79770000       0.98480000
   183  H          0.41230000       0.70230000       0.48480000
   184  H          0.08770000       0.20230000       0.01520000
   185  H          0.58150000       0.42700000       0.56730000
   186  H          0.91850000       0.92700000       0.93270000
   187  H          0.41850000       0.57300000       0.43270000
   188  H          0.08150000       0.07300000       0.06730000
   189  H          0.66680000       0.29870000       0.57450000
   190  H          0.83320000       0.79870000       0.92550000
   191  H          0.33320000       0.70130000       0.42550000
   192  H          0.16680000       0.20130000       0.07450000
   193  C          0.86072000       0.49554000       0.44373160
   194  C          0.63928000      -0.00446000       0.05626840
   195  C          0.13928000       0.50446000       0.55626840
   196  C          0.36072000       0.00446000       0.94373160
   197  H          0.90200000       0.42020000       0.47210000
   198  H          0.59800000       0.92020000       0.02790000
   199  H          0.09800000       0.57980000       0.52790000
   200  H          0.40200000       0.07980000       0.97210000
   201  H          0.89530000       0.58980000       0.43120000
   202  H          0.60470000       0.08980000       0.06880000
   203  H          0.10470000       0.41020000       0.56880000
   204  H          0.39530000       0.91020000       0.93120000
   205  H          0.82980000       0.42520000       0.40980000
   206  H          0.67020000       0.92520000       0.09020000
   207  H          0.17020000       0.57480000       0.59020000
   208  H          0.32980000       0.07480000       0.90980000
