data_MULJOV
_symmetry_space_group_name_H-M    'P1'
_symmetry_Int_Tables_number       1
loop_
_symmetry_equiv_pos_site_id
_symmetry_equiv_pos_as_xyz
1 x,y,z
_cell_length_a                   8.81033
_cell_length_b                   15.50326
_cell_length_c                   17.05457
_cell_angle_alpha                80.2863
_cell_angle_beta                 77.8953
_cell_angle_gamma                84.8803
loop_
_atom_site_label
_atom_site_type_symbol
_atom_site_fract_x
_atom_site_fract_y
_atom_site_fract_z
     1  Br         0.66338300       0.29205200      -0.00719800
     2  Br         0.33661700       0.70794800       0.00719800
     3  S          0.00443800       0.28688400       0.01418400
     4  S         -0.00443800       0.71311600       0.98581600
     5  O          0.68482000       0.44259130       0.09774120
     6  O          0.31518000       0.55740870       0.90225880
     7  O          0.06542000       0.29737130       0.92834110
     8  O          0.93458000       0.70262870       0.07165890
     9  O          0.00742000       0.19912120       0.05767120
    10  O         -0.00742000       0.80087880       0.94232880
    11  N          0.82623000       0.33349150       0.03347140
    12  N          0.17377000       0.66650850       0.96652860
    13  C          0.80703000       0.40290180       0.07695170
    14  C          0.19297000       0.59709820       0.92304830
    15  C          0.96313000       0.42021180       0.09092160
    16  C          0.03687000       0.57978820       0.90907840
    17  C          0.08133000       0.36176170       0.06028160
    18  C          0.91867000       0.63823830       0.93971840
    19  C          0.23473000       0.36700180       0.06496160
    20  C          0.76527000       0.63299820       0.93503840
    21  H          0.31160000       0.32660000       0.04520000
    22  H          0.68840000       0.67340000       0.95480000
    23  C          0.26933000       0.43514190       0.10038170
    24  C          0.73067000       0.56485810       0.89961830
    25  H          0.37170000       0.44160000       0.10350000
    26  H          0.62830000       0.55840000       0.89650000
    27  C          0.15223000       0.49413180       0.13139180
    28  C          0.84777000       0.50586820       0.86860820
    29  H          0.17790000       0.53900000       0.15540000
    30  H          0.82210000       0.46100000       0.84460000
    31  C         -0.00177000       0.48731180       0.12719170
    32  C          0.00177000       0.51268820       0.87280830
    33  H          0.92070000       0.52680000       0.14820000
    34  H          0.07930000       0.47320000       0.85180000
    35  O          0.47372000       0.24148120       0.94446110
    36  O          0.52628000       0.75851880       0.05553890
    37  N          0.47112000       0.28233140       0.86892130
    38  N          0.52888000       0.71766860       0.13107870
    39  C          0.51433000       0.23754180       0.80614170
    40  C          0.48567000       0.76245820       0.19385830
    41  H          0.55110000       0.17930000       0.81520000
    42  H          0.44890000       0.82070000       0.18480000
    43  C          0.50493000       0.27693180       0.72851170
    44  C          0.49507000       0.72306820       0.27148830
    45  H          0.53320000       0.24480000       0.68580000
    46  H          0.46680000       0.75520000       0.31420000
    47  C          0.45313000       0.36458170       0.71348160
    48  C          0.54687000       0.63541830       0.28651840
    49  C          0.41293000       0.40890170       0.78023160
    50  C          0.58707000       0.59109830       0.21976840
    51  H          0.37910000       0.46770000       0.77260000
    52  H          0.62090000       0.53230000       0.22740000
    53  C          0.42223000       0.36787170       0.85640170
    54  C          0.57777000       0.63212830       0.14359830
    55  H          0.39470000       0.39880000       0.90000000
    56  H          0.60530000       0.60120000       0.10000000
    57  C          0.44113000       0.41192000       0.62982170
    58  C          0.55887000       0.58808000       0.37017830
    59  H          0.51710000       0.45640000       0.61410000
    60  H          0.48290000       0.54360000       0.38590000
    61  H          0.33900000       0.44170000       0.63280000
    62  H          0.66100000       0.55830000       0.36720000
    63  C          0.46594000       0.35462000       0.56384180
    64  C          0.53406000       0.64538000       0.43615820
    65  H          0.45770000       0.39040000       0.51300000
    66  H          0.54230000       0.60960000       0.48700000
    67  H          0.38830000       0.31190000       0.57730000
    68  H          0.61170000       0.68810000       0.42270000
    69  H          0.56730000       0.32530000       0.55950000
    70  H          0.43270000       0.67470000       0.44050000
    71  Br         0.30923300       0.63793200       0.66678200
    72  Br         0.69076700       0.36206800       0.33321800
    73  S          0.65323800       0.63497400       0.68210400
    74  S          0.34676200       0.36502600       0.31789600
    75  O          0.33272000       0.78680120       0.77210120
    76  O          0.66728000       0.21319880       0.22789880
    77  O          0.71002000       0.64430130       0.59620110
    78  O          0.28998000       0.35569870       0.40379890
    79  O          0.65842000       0.54792120       0.72619110
    80  O          0.34158000       0.45207880       0.27380890
    81  N          0.47443000       0.68127150       0.70313140
    82  N          0.52557000       0.31872850       0.29686860
    83  C          0.45583000       0.74935170       0.74857160
    84  C          0.54417000       0.25064830       0.25142840
    85  C          0.61293000       0.76709170       0.76058160
    86  C          0.38707000       0.23290830       0.23941840
    87  C          0.73093000       0.71064170       0.72714160
    88  C          0.26907000       0.28935830       0.27285840
    89  C          0.64893000       0.83317180       0.79789160
    90  C          0.35107000       0.16682820       0.20210840
    91  H          0.57150000       0.87140000       0.82090000
    92  H          0.42850000       0.12860000       0.17910000
    93  C          0.80393000       0.84074180       0.79998170
    94  C          0.19607000       0.15925820       0.20001830
    95  H          0.83030000       0.88540000       0.82400000
    96  H          0.16970000       0.11460000       0.17600000
    97  C          0.92103000       0.78286180       0.76680170
    98  C          0.07897000       0.21713820       0.23319830
    99  H          0.02380000       0.78910000       0.76940000
   100  H          0.97620000       0.21090000       0.23060000
   101  C          0.88503000       0.71620180       0.72999160
   102  C          0.11497000       0.28379820       0.27000840
   103  H          0.96160000       0.67680000       0.70810000
   104  H          0.03840000       0.32320000       0.29190000
   105  O          0.11542000       0.58027120       0.62290110
   106  O          0.88458000       0.41972880       0.37709890
   107  N          0.11682000       0.60830150       0.54433140
   108  N          0.88318000       0.39169850       0.45566860
   109  C          0.15463000       0.55073180       0.49121180
   110  C          0.84537000       0.44926820       0.50878820
   111  H          0.18450000       0.49300000       0.50940000
   112  H          0.81550000       0.50700000       0.49060000
   113  C          0.14953000       0.57592000       0.41113180
   114  C          0.85047000       0.42408000       0.58886820
   115  H          0.17390000       0.53500000       0.37570000
   116  H          0.82610000       0.46500000       0.62430000
   117  C          0.10823000       0.66212190       0.38183180
   118  C          0.89177000       0.33787810       0.61816820
   119  C          0.07303000       0.72024190       0.43787170
   120  C          0.92697000       0.27975810       0.56212830
   121  H          0.04590000       0.77860000       0.42050000
   122  H          0.95410000       0.22140000       0.57950000
   123  C          0.07763000       0.69296180       0.51837170
   124  C          0.92237000       0.30703820       0.48162830
   125  H          0.05370000       0.73270000       0.55490000
   126  H          0.94630000       0.26730000       0.44510000
   127  C          0.09854000       0.68852000       0.29363180
   128  C          0.90146000       0.31148000       0.70636820
   129  H          0.18620000       0.66120000       0.26020000
   130  H          0.81380000       0.33880000       0.73980000
   131  H          0.10430000       0.75150000       0.27920000
   132  H          0.89570000       0.24850000       0.72080000
   133  C          0.94816000       0.66152000       0.27672000
   134  C          0.05184000       0.33848000       0.72328000
   135  H          0.94820000       0.67610000       0.21970000
   136  H          0.05180000       0.32390000       0.78030000
   137  H          0.86130000       0.69190000       0.30660000
   138  H          0.13870000       0.30810000       0.69340000
   139  H          0.94010000       0.59940000       0.29310000
   140  H          0.05990000       0.40060000       0.70690000
   141  Br         0.97916700       0.95501200       0.32592200
   142  Br         0.02083300       0.04498800       0.67407800
   143  S          0.32020800       0.94911400       0.34571400
   144  S          0.67979200       0.05088600       0.65428600
   145  O          0.00482000       0.10547130       0.43215120
   146  O         -0.00482000       0.89452870       0.56784880
   147  O          0.32482000       0.86276120       0.39245120
   148  O          0.67518000       0.13723880       0.60754880
   149  O          0.37452000       0.95554130       0.25952110
   150  O          0.62548000       0.04445870       0.74047890
   151  N          0.14233000      -0.00391850       0.36628150
   152  N          0.85767000       0.00391850       0.63371850
   153  C          0.12603000       0.06556170       0.40985160
   154  C          0.87397000       0.93443830       0.59014840
   155  C          0.28363000       0.08240170       0.42211160
   156  C          0.71637000       0.91759830       0.57788840
   157  C          0.40053000       0.02521170       0.38819160
   158  C          0.59947000       0.97478830       0.61180840
   159  C          0.32173000       0.14759180       0.45934170
   160  C          0.67827000       0.85240820       0.54065830
   161  H          0.24520000       0.18600000       0.48280000
   162  H          0.75480000       0.81400000       0.51720000
   163  C          0.47733000       0.15452190       0.46100180
   164  C          0.52267000       0.84547810       0.53899820
   165  H          0.50480000       0.19880000       0.48510000
   166  H          0.49520000       0.80120000       0.51490000
   167  C          0.59293000       0.09620180       0.42719170
   168  C          0.40707000       0.90379820       0.57280830
   169  H          0.69610000       0.10200000       0.42930000
   170  H          0.30390000       0.89800000       0.57070000
   171  C          0.55533000       0.02995180       0.39065160
   172  C          0.44467000       0.97004820       0.60934840
   173  H          0.63110000       0.99020000       0.36870000
   174  H          0.36890000       0.00980000       0.63130000
   175  O          0.78978000       0.89968120       0.28008120
   176  O          0.21022000       0.10031880       0.71991880
   177  N          0.77368000       0.93343150       0.20472140
   178  N          0.22632000       0.06656850       0.79527860
   179  C          0.77747000       0.87888180       0.15071170
   180  C          0.22253000       0.12111820       0.84928830
   181  H          0.79930000       0.81920000       0.16520000
   182  H          0.20070000       0.18080000       0.83480000
   183  C          0.74977000       0.90990180       0.07462170
   184  C          0.25023000       0.09009820       0.92537830
   185  H          0.75020000       0.87090000       0.03870000
   186  H          0.24980000       0.12910000       0.96130000
   187  C          0.72097000      -0.00067810       0.05041170
   188  C          0.27903000       0.00067810       0.94958830
   189  C          0.72517000       0.05407180       0.10693170
   190  C          0.27483000       0.94592820       0.89306830
   191  H          0.71060000       0.11440000       0.09250000
   192  H          0.28940000       0.88560000       0.90750000
   193  C          0.75037000       0.02100180       0.18306170
   194  C          0.24963000       0.97899820       0.81693830
   195  H          0.75160000       0.05870000       0.21990000
   196  H          0.24840000       0.94130000       0.78010000
   197  C          0.69377000       0.03492000       0.96675830
   198  C          0.30623000       0.96508000       0.03324170
   199  H          0.61790000       0.08420000       0.96970000
   200  H          0.38210000       0.91580000       0.03030000
   201  H          0.65140000       0.99000000       0.94570000
   202  H          0.34860000       0.01000000       0.05430000
   203  C          0.84367000       0.06462000       0.90871810
   204  C          0.15633000       0.93538000       0.09128190
   205  H          0.82230000       0.08540000       0.85560000
   206  H          0.17770000       0.91460000       0.14440000
   207  H          0.91940000       0.01610000       0.90600000
   208  H          0.08060000       0.98390000       0.09400000
   209  H          0.88350000       0.11090000       0.92810000
   210  H          0.11650000       0.88910000       0.07190000
