data_MULKIQ
_symmetry_space_group_name_H-M    'P1'
_symmetry_Int_Tables_number       1
loop_
_symmetry_equiv_pos_site_id
_symmetry_equiv_pos_as_xyz
1 x,y,z
_cell_length_a                   7.061814
_cell_length_b                   8.559217
_cell_length_c                   12.6363
_cell_angle_alpha                99.793
_cell_angle_beta                 96.063
_cell_angle_gamma                93.603
loop_
_atom_site_label
_atom_site_type_symbol
_atom_site_fract_x
_atom_site_fract_y
_atom_site_fract_z
     1  Br         0.74741300       0.92651200       0.73617200
     2  Br         0.25258700       0.07348800       0.26382800
     3  S          0.77472700       0.55996500       0.71742400
     4  S          0.22527300       0.44003500       0.28257600
     5  O          0.72782000       0.78516170       0.48707120
     6  O          0.27218000       0.21483830       0.51292880
     7  O          0.95462000       0.56982170       0.78260120
     8  O          0.04538000       0.43017830       0.21739880
     9  O          0.60662000       0.53784170       0.76903120
    10  O          0.39338000       0.46215830       0.23096880
    11  N          0.76063000       0.71717190       0.65598140
    12  N          0.23937000       0.28282810       0.34401860
    13  C          0.74423000       0.68602000       0.54423160
    14  C          0.25577000       0.31398000       0.45576840
    15  C          0.75203000       0.51142000       0.50837160
    16  C          0.24797000       0.48858000       0.49162840
    17  C          0.76883000       0.42802000       0.59386160
    18  C          0.23117000       0.57198000       0.40613840
    19  C          0.78023000       0.26552000       0.57854170
    20  C          0.21977000       0.73448000       0.42145830
    21  H          0.79220000       0.21050000       0.63790000
    22  H          0.20780000       0.78950000       0.36210000
    23  C          0.77353000       0.18592000       0.47275180
    24  C          0.22647000       0.81408000       0.52724820
    25  H          0.78010000       0.07390000       0.45910000
    26  H          0.21990000       0.92610000       0.54090000
    27  C          0.75733000       0.26783000       0.38632170
    28  C          0.24267000       0.73217000       0.61367830
    29  H          0.75340000       0.21070000       0.31460000
    30  H          0.24660000       0.78930000       0.68540000
    31  C          0.74693000       0.43112000       0.40332170
    32  C          0.25307000       0.56888000       0.59667830
    33  H          0.73640000       0.48670000       0.34420000
    34  H          0.26360000       0.51330000       0.65580000
    35  O          0.73250180       0.18425150       0.82119110
    36  O          0.26749820       0.81574850       0.17880890
    37  N          0.55412000       0.21330180       0.84268130
    38  N          0.44588000       0.78669820       0.15731870
    39  C          0.52333000       0.26732000       0.94576160
    40  C          0.47667000       0.73268000       0.05423840
    41  C          0.33823000       0.29802000       0.96513180
    42  C          0.66177000       0.70198000       0.03486820
    43  H          0.31260000       0.33560000       0.03700000
    44  H          0.68740000       0.66440000       0.96300000
    45  C          0.19023000       0.27483000       0.88137190
    46  C          0.80977000       0.72517000       0.11862810
    47  H          0.06360000       0.29500000       0.89540000
    48  H          0.93640000       0.70500000       0.10460000
    49  C          0.22993000       0.22202000       0.77750180
    50  C          0.77007000       0.77798000       0.22249820
    51  H          0.13060000       0.20640000       0.71890000
    52  H          0.86940000       0.79360000       0.28110000
    53  C          0.41273000       0.19232000       0.75903160
    54  C          0.58727000       0.80768000       0.24096840
    55  H          0.44060000       0.15680000       0.68740000
    56  H          0.55940000       0.84320000       0.31260000
    57  C          0.68863000       0.28702000       0.03284170
    58  C          0.31137000       0.71298000       0.96715830
    59  H          0.65460000       0.35490000       0.09860000
    60  H          0.34540000       0.64510000       0.90140000
    61  H          0.79950000       0.34230000       0.00890000
    62  H          0.20050000       0.65770000      -0.00890000
    63  C          0.74583000       0.12893000       0.06104190
    64  C          0.25417000       0.87107000       0.93895810
    65  H          0.77850000       0.06070000      -0.00390000
    66  H          0.22150000       0.93930000       0.00390000
    67  H          0.63890000       0.07620000       0.08860000
    68  H          0.36110000       0.92380000       0.91140000
    69  H          0.85670000       0.14810000       0.11650000
    70  H          0.14330000       0.85190000       0.88350000
