data_MULKUC
_symmetry_space_group_name_H-M    'P1'
_symmetry_Int_Tables_number       1
loop_
_symmetry_equiv_pos_site_id
_symmetry_equiv_pos_as_xyz
1 x,y,z
_cell_length_a                   7.07334
_cell_length_b                   8.44276
_cell_length_c                   17.425912
_cell_angle_alpha                81.8876
_cell_angle_beta                 86.0595
_cell_angle_gamma                85.9215
loop_
_atom_site_label
_atom_site_type_symbol
_atom_site_fract_x
_atom_site_fract_y
_atom_site_fract_z
     1  Br         0.67252500       0.59605400       0.66987200
     2  Br         0.32747500       0.40394600       0.33012800
     3  S          0.71101120       0.96490900       0.65557500
     4  S          0.28898880       0.03509100       0.34442500
     5  O          0.72463000       0.72113000       0.49086130
     6  O          0.27537000       0.27887000       0.50913870
     7  O          0.52923000      -0.00777000       0.69426130
     8  O          0.47077000       0.00777000       0.30573870
     9  O          0.87373000       0.95773000       0.70069130
    10  O          0.12627000       0.04227000       0.29930870
    11  N          0.71364000       0.80113000       0.61191150
    12  N          0.28636000       0.19887000       0.38808850
    13  C          0.72725000       0.82584000       0.53178190
    14  C          0.27275000       0.17416000       0.46821810
    15  C          0.74835000       0.00034000       0.50501190
    16  C          0.25165000      -0.00034000       0.49498810
    17  C          0.74195000       0.09014000       0.56631190
    18  C          0.25805000       0.90986000       0.43368810
    19  C          0.76105000       0.25234000       0.55482000
    20  C          0.23895000       0.74766000       0.44518000
    21  H          0.75670000       0.31090000       0.59630000
    22  H          0.24330000       0.68910000       0.40370000
    23  C          0.78705000       0.32544000       0.47872000
    24  C          0.21295000       0.67456000       0.52128000
    25  H          0.79980000       0.43540000       0.46890000
    26  H          0.20020000       0.56460000       0.53110000
    27  C          0.79435000       0.23734000       0.41732000
    28  C          0.20565000       0.76266000       0.58268000
    29  H          0.81340000       0.28880000       0.36680000
    30  H          0.18660000       0.71120000       0.63320000
    31  C          0.77365000       0.07334000       0.42977190
    32  C          0.22635000       0.92666000       0.57022810
    33  H          0.77680000       0.01440000       0.38840000
    34  H          0.22320000       0.98560000       0.61160000
    35  O          0.62533000       0.34173000       0.73135130
    36  O          0.37467000       0.65827000       0.26864870
    37  N          0.44014000       0.31863000       0.74514150
    38  N          0.55986000       0.68137000       0.25485850
    39  C          0.33095000       0.32764000       0.68330190
    40  C          0.66905000       0.67236000       0.31669810
    41  H          0.38520000       0.35070000       0.63320000
    42  H          0.61480000       0.64930000       0.36680000
    43  C          0.14155000       0.30294000       0.69452000
    44  C          0.85845000       0.69706000       0.30548000
    45  H          0.06730000       0.30850000       0.65210000
    46  H          0.93270000       0.69150000       0.34790000
    47  C          0.06065000       0.26974000       0.76892000
    48  C          0.93935000       0.73026000       0.23108000
    49  H          0.93170000       0.25390000       0.77750000
    50  H          0.06830000       0.74610000       0.22250000
    51  C          0.17725000       0.26054000       0.83022000
    52  C          0.82275000       0.73946000       0.16978000
    53  H          0.12480000       0.23720000       0.88070000
    54  H          0.87520000       0.76280000       0.11930000
    55  C          0.36865000       0.28494000       0.81896190
    56  C          0.63135000       0.71506000       0.18103810
    57  C          0.50615000       0.27074000       0.88211190
    58  C          0.49385000       0.72926000       0.11788810
    59  H          0.60080000       0.35030000       0.86660000
    60  H          0.39920000       0.64970000       0.13340000
    61  C          0.40986000       0.30395000       0.95992000
    62  C          0.59014000       0.69605000       0.04008000
    63  H          0.34190000       0.40700000       0.95340000
    64  H          0.65810000       0.59300000       0.04660000
    65  H          0.50430000       0.30290000      -0.00300000
    66  H          0.49570000       0.69710000       0.00300000
    67  H          0.32280000       0.22270000       0.97820000
    68  H          0.67720000       0.77730000       0.02180000
    69  C          0.60905000       0.10464000       0.88882000
    70  C          0.39095000       0.89536000       0.11118000
    71  H          0.52030000       0.02490000       0.90730000
    72  H          0.47970000       0.97510000       0.09270000
    73  H          0.70750000       0.09880000       0.92450000
    74  H          0.29250000       0.90120000       0.07550000
    75  H          0.66400000       0.08560000       0.83880000
    76  H          0.33600000       0.91440000       0.16120000
    77  Cl         0.89555180       0.62454160       0.86904800
    78  Cl         0.10444820       0.37545840       0.13095200
    79  Cl         0.08691150       0.85017130       0.94029600
    80  Cl         0.91308850       0.14982870       0.05970400
    81  Cl         0.26660170       0.71560140       0.80845700
    82  Cl         0.73339830       0.28439860       0.19154300
    83  C          0.05146000       0.77845000       0.85312000
    84  C          0.94854000       0.22155000       0.14688000
    85  H         -0.00660000       0.86670000       0.81800000
    86  H          0.00660000       0.13330000       0.18200000
