data_MULKOW
_symmetry_space_group_name_H-M    'P1'
_symmetry_Int_Tables_number       1
loop_
_symmetry_equiv_pos_site_id
_symmetry_equiv_pos_as_xyz
1 x,y,z
_cell_length_a                   10.8382
_cell_length_b                   10.8282
_cell_length_c                   13.3593
_cell_angle_alpha                90.0
_cell_angle_beta                 100.673
_cell_angle_gamma                90.0
loop_
_atom_site_label
_atom_site_type_symbol
_atom_site_fract_x
_atom_site_fract_y
_atom_site_fract_z
     1  Br         0.64898300       0.60186200       0.66656200
     2  Br         0.35101700       0.10186200       0.83343800
     3  Br         0.35101700       0.39813800       0.33343800
     4  Br         0.64898300       0.89813800       0.16656200
     5  S          0.86027700       0.40410600       0.70059500
     6  S          0.13972300       0.90410600       0.79940500
     7  S          0.13972300       0.59589400       0.29940500
     8  S          0.86027700       0.09589400       0.20059500
     9  O          0.70982000       0.52566170       0.44554130
    10  O          0.29018000       0.02566170       0.05445870
    11  O          0.29018000       0.47433830       0.55445870
    12  O          0.70982000       0.97433830       0.94554130
    13  O          0.79532000       0.31209180       0.74653130
    14  O          0.20468000       0.81209180       0.75346870
    15  O          0.20468000       0.68790820       0.25346870
    16  O          0.79532000       0.18790820       0.24653130
    17  O          0.94067190       0.48544170       0.76687130
    18  O          0.05932810       0.98544170       0.73312870
    19  O          0.05932810       0.51455830       0.23312870
    20  O          0.94067190       0.01455830       0.26687130
    21  N          0.76032000       0.48504190       0.61694150
    22  N          0.23968000       0.98504190       0.88305850
    23  N          0.23968000       0.51495810       0.38305850
    24  N          0.76032000       0.01495810       0.11694150
    25  C          0.77383000       0.47312000       0.51703190
    26  C          0.22617000       0.97312000       0.98296810
    27  C          0.22617000       0.52688000       0.48296810
    28  C          0.77383000       0.02688000       0.01703190
    29  C          0.87993000       0.38772000       0.51161190
    30  C          0.12007000       0.88772000       0.98838810
    31  C          0.12007000       0.61228000       0.48838810
    32  C          0.87993000       0.11228000       0.01161190
    33  C          0.93563000       0.34162000       0.60642190
    34  C          0.06437000       0.84162000       0.89357810
    35  C          0.06437000       0.65838000       0.39357810
    36  C          0.93563000       0.15838000       0.10642190
    37  C          0.03463000       0.26043000       0.61902000
    38  C          0.96537000       0.76043000       0.88098000
    39  C          0.96537000       0.73957000       0.38098000
    40  C          0.03463000       0.23957000       0.11902000
    41  H          0.07020000       0.22810000       0.68400000
    42  H          0.92980000       0.72810000       0.81600000
    43  H          0.92980000       0.77190000       0.31600000
    44  H          0.07020000       0.27190000       0.18400000
    45  C          0.08033000       0.22793000       0.53252000
    46  C          0.91967000       0.72793000       0.96748000
    47  C          0.91967000       0.77207000       0.46748000
    48  C          0.08033000       0.27207000       0.03252000
    49  H          0.14960000       0.17300000       0.53830000
    50  H          0.85040000       0.67300000       0.96170000
    51  H          0.85040000       0.82700000       0.46170000
    52  H          0.14960000       0.32700000       0.03830000
    53  C          0.02693000       0.27373000       0.43822000
    54  C          0.97307000       0.77373000       0.06178000
    55  C          0.97307000       0.72627000       0.56178000
    56  C          0.02693000       0.22627000       0.93822000
    57  H          0.06050000       0.24960000       0.38030000
    58  H          0.93950000       0.74960000       0.11970000
    59  H          0.93950000       0.75040000       0.61970000
    60  H          0.06050000       0.25040000       0.88030000
    61  C          0.92523000       0.35433000       0.42552000
    62  C          0.07477000       0.85433000       0.07448000
    63  C          0.07477000       0.64567000       0.57448000
    64  C          0.92523000       0.14567000       0.92552000
    65  H          0.88850000       0.38500000       0.36010000
    66  H          0.11150000       0.88500000       0.13990000
    67  H          0.11150000       0.61500000       0.63990000
    68  H          0.88850000       0.11500000       0.86010000
    69  O          0.52434190       0.74036160       0.71892130
    70  O          0.47565810       0.24036160       0.78107870
    71  O          0.47565810       0.25963840       0.28107870
    72  O          0.52434190       0.75963840       0.21892130
    73  N          0.47322000       0.69715190       0.79692150
    74  N          0.52678000       0.19715190       0.70307850
    75  N          0.52678000       0.30284810       0.20307850
    76  N          0.47322000       0.80284810       0.29692150
    77  C          0.39893000       0.59712000       0.78379190
    78  C          0.60107000       0.09712000       0.71620810
    79  C          0.60107000       0.40288000       0.21620810
    80  C          0.39893000       0.90288000       0.28379190
    81  H          0.38420000       0.55630000       0.71970000
    82  H          0.61580000       0.05630000       0.78030000
    83  H          0.61580000       0.44370000       0.28030000
    84  H          0.38420000       0.94370000       0.21970000
    85  C          0.34343000       0.55232000       0.86141190
    86  C          0.65657000       0.05232000       0.63858810
    87  C          0.65657000       0.44768000       0.13858810
    88  C          0.34343000       0.94768000       0.36141190
    89  C          0.36583000       0.61332000       0.95502000
    90  C          0.63417000       0.11332000       0.54498000
    91  C          0.63417000       0.38668000       0.04498000
    92  C          0.36583000       0.88668000       0.45502000
    93  C          0.44303000       0.71643000       0.96508190
    94  C          0.55697000       0.21643000       0.53491810
    95  C          0.55697000       0.28357000       0.03491810
    96  C          0.44303000       0.78357000       0.46508190
    97  H          0.45880000       0.75970000       0.02800000
    98  H          0.54120000       0.25970000       0.47200000
    99  H          0.54120000       0.24030000       0.97200000
   100  H          0.45880000       0.74030000       0.52800000
   101  C          0.49713000       0.75702000       0.88602000
   102  C          0.50287000       0.25702000       0.61398000
   103  C          0.50287000       0.24298000       0.11398000
   104  C          0.49713000       0.74298000       0.38602000
   105  H          0.55100000       0.82690000       0.89450000
   106  H          0.44900000       0.32690000       0.60550000
   107  H          0.44900000       0.17310000       0.10550000
   108  H          0.55100000       0.67310000       0.39450000
   109  C          0.30773000       0.57043000       0.04272000
   110  C          0.69227000       0.07043000       0.45728000
   111  C          0.69227000       0.42957000       0.95728000
   112  C          0.30773000       0.92957000       0.54272000
   113  H          0.21600000       0.57560000       0.02390000
   114  H          0.78400000       0.07560000       0.47610000
   115  H          0.78400000       0.42440000       0.97610000
   116  H          0.21600000       0.92440000       0.52390000
   117  H          0.33670000       0.62290000       0.10210000
   118  H          0.66330000       0.12290000       0.39790000
   119  H          0.66330000       0.37710000       0.89790000
   120  H          0.33670000       0.87710000       0.60210000
   121  H          0.33230000       0.48470000       0.05930000
   122  H          0.66770000       0.98470000       0.44070000
   123  H          0.66770000       0.51530000       0.94070000
   124  H          0.33230000       0.01530000       0.55930000
   125  C          0.25963000       0.44083000       0.84212000
   126  C          0.74037000       0.94083000       0.65788000
   127  C          0.74037000       0.55917000       0.15788000
   128  C          0.25963000       0.05917000       0.34212000
   129  H          0.17420000       0.46350000       0.84930000
   130  H          0.82580000       0.96350000       0.65070000
   131  H          0.82580000       0.53650000       0.15070000
   132  H          0.17420000       0.03650000       0.34930000
   133  H          0.29130000       0.37610000       0.89150000
   134  H          0.70870000       0.87610000       0.60850000
   135  H          0.70870000       0.62390000       0.10850000
   136  H          0.29130000       0.12390000       0.39150000
   137  H          0.25880000       0.41010000       0.77300000
   138  H          0.74120000       0.91010000       0.72700000
   139  H          0.74120000       0.58990000       0.22700000
   140  H          0.25880000       0.08990000       0.27300000
