data_MULKAI
_symmetry_space_group_name_H-M    'P1'
_symmetry_Int_Tables_number       1
loop_
_symmetry_equiv_pos_site_id
_symmetry_equiv_pos_as_xyz
1 x,y,z
_cell_length_a                   7.13923
_cell_length_b                   8.44014
_cell_length_c                   28.784711
_cell_angle_alpha                90.0
_cell_angle_beta                 92.8024
_cell_angle_gamma                90.0
loop_
_atom_site_label
_atom_site_type_symbol
_atom_site_fract_x
_atom_site_fract_y
_atom_site_fract_z
     1  Br         0.26663400       0.13920300       0.39923200
     2  Br         0.73336600       0.63920300       0.10076800
     3  Br         0.73336600       0.86079700       0.60076800
     4  Br         0.26663400       0.36079700       0.89923200
     5  S          0.24171900       0.50796800       0.40819200
     6  S          0.75828100       0.00796800       0.09180800
     7  S          0.75828100       0.49203200       0.59180800
     8  S          0.24171900      -0.00796800       0.90819200
     9  O          0.27193000       0.21422000       0.50635700
    10  O          0.72807000       0.71422000       0.99364300
    11  O          0.72807000       0.78578000       0.49364300
    12  O          0.27193000       0.28578000       0.00635700
    13  O          0.06783000       0.52472000       0.38163600
    14  O          0.93217000       0.02472000       0.11836400
    15  O          0.93217000       0.47528000       0.61836400
    16  O          0.06783000       0.97528000       0.88163600
    17  O          0.41083000       0.53512000       0.38457700
    18  O          0.58917000       0.03512000       0.11542300
    19  O          0.58917000       0.46488000       0.61542300
    20  O          0.41083000       0.96488000       0.88457700
    21  N          0.25103000       0.33073000       0.43421800
    22  N          0.74897000       0.83073000       0.06578200
    23  N          0.74897000       0.66927000       0.56578200
    24  N          0.25103000       0.16927000       0.93421800
    25  C          0.25984000       0.33153000       0.48215100
    26  C          0.74016000       0.83153000       0.01784900
    27  C          0.74016000       0.66847000       0.51784900
    28  C          0.25984000       0.16847000       0.98215100
    29  C          0.24974000       0.49853000       0.49820900
    30  C          0.75026000      -0.00147000       0.00179100
    31  C          0.75026000       0.50147000       0.50179100
    32  C          0.24974000       0.00147000      -0.00179100
    33  C          0.23914000       0.60734000       0.46218900
    34  C          0.76086000       0.10734000       0.03781100
    35  C          0.76086000       0.39266000       0.53781100
    36  C          0.23914000       0.89266000       0.96218900
    37  C          0.22444000       0.76844000       0.46942100
    38  C          0.77556000       0.26844000       0.03057900
    39  C          0.77556000       0.23156000       0.53057900
    40  C          0.22444000       0.73156000       0.96942100
    41  H          0.21570000       0.83940000       0.44470000
    42  H          0.78430000       0.33940000       0.05530000
    43  H          0.78430000       0.16060000       0.55530000
    44  H          0.21570000       0.66060000       0.94470000
    45  C          0.22324000       0.81984000       0.51544110
    46  C          0.77676000       0.31984000       0.98455890
    47  C          0.77676000       0.18016000       0.48455890
    48  C          0.22324000       0.68016000       0.01544110
    49  H          0.21490000       0.92750000       0.52180000
    50  H          0.78510000       0.42750000       0.97820000
    51  H          0.78510000       0.07250000       0.47820000
    52  H          0.21490000       0.57250000       0.02180000
    53  C          0.23424000       0.71174000       0.55211100
    54  C          0.76576000       0.21174000       0.94788900
    55  C          0.76576000       0.28826000       0.44788900
    56  C          0.23424000       0.78826000       0.05211100
    57  H          0.23270000       0.74850000       0.58250000
    58  H          0.76730000       0.24850000       0.91750000
    59  H          0.76730000       0.25150000       0.41750000
    60  H          0.23270000       0.75150000       0.08250000
    61  C          0.24764000       0.55004000       0.54396900
    62  C          0.75236000       0.05004000       0.95603100
    63  C          0.75236000       0.44996000       0.45603100
    64  C          0.24764000       0.94996000       0.04396900
    65  H          0.25490000       0.47820000       0.56850000
    66  H          0.74510000       0.97820000       0.93150000
    67  H          0.74510000       0.52180000       0.43150000
    68  H          0.25490000       0.02180000       0.06850000
    69  O          0.29173000       0.89738000       0.36295600
    70  O          0.70827000       0.39738000       0.13704400
    71  O          0.70827000       0.10262000       0.63704400
    72  O          0.29173000       0.60262000       0.86295600
    73  N          0.47223000       0.87307000       0.35410800
    74  N          0.52777000       0.37307000       0.14589200
    75  N          0.52777000       0.12693000       0.64589200
    76  N          0.47223000       0.62693000       0.85410800
    77  C          0.60104000       0.87627000       0.39011100
    78  C          0.39896000       0.37627000       0.10988900
    79  C          0.39896000       0.12373000       0.60988900
    80  C          0.60104000       0.62373000       0.89011100
    81  H          0.56210000       0.88750000       0.42030000
    82  H          0.43790000       0.38750000       0.07970000
    83  H          0.43790000       0.11250000       0.57970000
    84  H          0.56210000       0.61250000       0.92030000
    85  C          0.78934000       0.86307000       0.38247100
    86  C          0.21066000       0.36307000       0.11752900
    87  C          0.21066000       0.13693000       0.61752900
    88  C          0.78934000       0.63693000       0.88247100
    89  H          0.87710000       0.86550000       0.40740000
    90  H          0.12290000       0.36550000       0.09260000
    91  H          0.12290000       0.13450000       0.59260000
    92  H          0.87710000       0.63450000       0.90740000
    93  C          0.84774000       0.84646000       0.33768110
    94  C          0.15226000       0.34646000       0.16231890
    95  C          0.15226000       0.15354000       0.66231890
    96  C          0.84774000       0.65354000       0.83768110
    97  H          0.97450000       0.84190000       0.33180000
    98  H          0.02550000       0.34190000       0.16820000
    99  H          0.02550000       0.15810000       0.66820000
   100  H          0.97450000       0.65810000       0.83180000
   101  C          0.71134000       0.83686000       0.30173100
   102  C          0.28866000       0.33686000       0.19826900
   103  C          0.28866000       0.16314000       0.69826900
   104  C          0.71134000       0.66314000       0.80173100
   105  H          0.74780000       0.82260000       0.27140000
   106  H          0.25220000       0.32260000       0.22860000
   107  H          0.25220000       0.17740000       0.72860000
   108  H          0.74780000       0.67740000       0.77140000
   109  C          0.52234000       0.84797000       0.30984100
   110  C          0.47766000       0.34797000       0.19015900
   111  C          0.47766000       0.15203000       0.69015900
   112  C          0.52234000       0.65203000       0.80984100
   113  C          0.37344000       0.82887000       0.27217900
   114  C          0.62656000       0.32887000       0.22782100
   115  C          0.62656000       0.17113000       0.72782100
   116  C          0.37344000       0.67113000       0.77217900
   117  C          0.38804000       0.91196000       0.23072100
   118  C          0.61196000       0.41196000       0.26927900
   119  C          0.61196000       0.08804000       0.76927900
   120  C          0.38804000       0.58804000       0.73072100
   121  H          0.48520000      -0.01600000       0.22760000
   122  H          0.51480000       0.48400000       0.27240000
   123  H          0.51480000       0.01600000       0.77240000
   124  H          0.48520000       0.51600000       0.72760000
   125  C          0.25765000       0.88756000       0.19414110
   126  C          0.74235000       0.38756000       0.30585890
   127  C          0.74235000       0.11244000       0.80585890
   128  C          0.25765000       0.61244000       0.69414110
   129  H          0.26620000       0.94470000       0.16670000
   130  H          0.73380000       0.44470000       0.33330000
   131  H          0.73380000       0.05530000       0.83330000
   132  H          0.26620000       0.55530000       0.66670000
   133  C          0.11414000       0.77816000       0.19832100
   134  C          0.88586000       0.27816000       0.30167900
   135  C          0.88586000       0.22184000       0.80167900
   136  C          0.11414000       0.72184000       0.69832100
   137  H          0.02660000       0.76230000       0.17380000
   138  H          0.97340000       0.26230000       0.32620000
   139  H          0.97340000       0.23770000       0.82620000
   140  H          0.02660000       0.73770000       0.67380000
   141  C          0.10184000       0.69306000       0.23905100
   142  C          0.89816000       0.19306000       0.26094900
   143  C          0.89816000       0.30694000       0.76094900
   144  C          0.10184000       0.80694000       0.73905100
   145  H          0.00700000       0.61840000       0.24150000
   146  H         -0.00700000       0.11840000       0.25850000
   147  H         -0.00700000       0.38160000       0.75850000
   148  H          0.00700000       0.88160000       0.74150000
   149  C          0.22964000       0.71786000       0.27635900
   150  C          0.77036000       0.21786000       0.22364100
   151  C          0.77036000       0.28214000       0.72364100
   152  C          0.22964000       0.78214000       0.77635900
   153  H          0.21960000       0.66120000       0.30380000
   154  H          0.78040000       0.16120000       0.19620000
   155  H          0.78040000       0.33880000       0.69620000
   156  H          0.21960000       0.83880000       0.80380000
