data_MULLOX
_symmetry_space_group_name_H-M    'P1'
_symmetry_Int_Tables_number       1
loop_
_symmetry_equiv_pos_site_id
_symmetry_equiv_pos_as_xyz
1 x,y,z
_cell_length_a                   8.66102
_cell_length_b                   13.25173
_cell_length_c                   15.37193
_cell_angle_alpha                90.0
_cell_angle_beta                 97.6642
_cell_angle_gamma                90.0
loop_
_atom_site_label
_atom_site_type_symbol
_atom_site_fract_x
_atom_site_fract_y
_atom_site_fract_z
     1  I          0.61359400       0.36761200       0.86964200
     2  I          0.88640600       0.86761200       0.63035800
     3  I          0.38640600       0.63238800       0.13035800
     4  I          0.11359400       0.13238800       0.36964200
     5  S          0.00105140       0.37602900       0.90200800
     6  S          0.49894860       0.87602900       0.59799200
     7  S         -0.00105140       0.62397100       0.09799200
     8  S          0.50105140       0.12397100       0.40200800
     9  O          0.75674000       0.29793000       0.07292000
    10  O          0.74326000       0.79793000       0.42708000
    11  O          0.24326000       0.70207000       0.92708000
    12  O          0.25674000       0.20207000       0.57292000
    13  O          0.01935000       0.48053000       0.88152000
    14  O          0.48065000       0.98053000       0.61848000
    15  O          0.98065000       0.51947000       0.11848000
    16  O          0.51935000       0.01947000       0.38152000
    17  O          0.00904000       0.30473000       0.83242000
    18  O          0.49096000       0.80473000       0.66758000
    19  O         -0.00904000       0.69527000       0.16758000
    20  O          0.50904000       0.19527000       0.33242000
    21  N          0.83865000       0.35853000       0.94613000
    22  N          0.66135000       0.85853000       0.55387000
    23  N          0.16135000       0.64147000       0.05387000
    24  N          0.33865000       0.14147000       0.44613000
    25  C          0.86076000       0.32024000       0.03073000
    26  C          0.63924000       0.82024000       0.46927000
    27  C          0.13924000       0.67976000       0.96927000
    28  C          0.36076000       0.17976000       0.53073000
    29  C          0.03116000       0.31114000       0.06113000
    30  C          0.46884000       0.81114000       0.43887000
    31  C          0.96884000       0.68886000       0.93887000
    32  C          0.53116000       0.18886000       0.56113000
    33  C          0.12276000       0.34094000      -0.00147000
    34  C          0.37724000       0.84094000       0.50147000
    35  C          0.87724000       0.65906000       0.00147000
    36  C          0.62276000       0.15906000       0.49853000
    37  C          0.28307000       0.34414000       0.01364000
    38  C          0.21693000       0.84414000       0.48636000
    39  C          0.71693000       0.65586000       0.98636000
    40  C          0.78307000       0.15586000       0.51364000
    41  H          0.34170000       0.36670000       0.97110000
    42  H          0.15830000       0.86670000       0.52890000
    43  H          0.65830000       0.63330000       0.02890000
    44  H          0.84170000       0.13330000       0.47110000
    45  C          0.35237000       0.31204000       0.09544000
    46  C          0.14763000       0.81204000       0.40456000
    47  C          0.64763000       0.68796000       0.90456000
    48  C          0.85237000       0.18796000       0.59544000
    49  H          0.46030000       0.31160000       0.10790000
    50  H          0.03970000       0.81160000       0.39210000
    51  H          0.53970000       0.68840000       0.89210000
    52  H          0.96030000       0.18840000       0.60790000
    53  C          0.26247000       0.28024000       0.15974000
    54  C          0.23753000       0.78024000       0.34026000
    55  C          0.73753000       0.71976000       0.84026000
    56  C          0.76247000       0.21976000       0.65974000
    57  H          0.31170000       0.25890000       0.21400000
    58  H          0.18830000       0.75890000       0.28600000
    59  H          0.68830000       0.74110000       0.78600000
    60  H          0.81170000       0.24110000       0.71400000
    61  C          0.10037000       0.27994000       0.14333000
    62  C          0.39963000       0.77994000       0.35667000
    63  C          0.89963000       0.72006000       0.85667000
    64  C          0.60037000       0.22006000       0.64333000
    65  H          0.04040000       0.25940000       0.18610000
    66  H          0.45960000       0.75940000       0.31390000
    67  H          0.95960000       0.74060000       0.81390000
    68  H          0.54040000       0.24060000       0.68610000
    69  O          0.36134000       0.36943000       0.79282000
    70  O          0.13866000       0.86943000       0.70718000
    71  O          0.63866000       0.63057000       0.20718000
    72  O          0.86134000       0.13057000       0.29282000
    73  N          0.32625000       0.45163000       0.74113000
    74  N          0.17375000       0.95163000       0.75887000
    75  N          0.67375000       0.54837000       0.25887000
    76  N          0.82625000       0.04837000       0.24113000
    77  C          0.30606000       0.54164000       0.77884000
    78  C          0.19394000       0.04164000       0.72116000
    79  C          0.69394000       0.45836000       0.22116000
    80  C          0.80606000       0.95836000       0.27884000
    81  H          0.31870000       0.54810000       0.83950000
    82  H          0.18130000       0.04810000       0.66050000
    83  H          0.68130000       0.45190000       0.16050000
    84  H          0.81870000       0.95190000       0.33950000
    85  C          0.26616000       0.62384000       0.72564000
    86  C          0.23384000       0.12384000       0.77436000
    87  C          0.73384000       0.37616000       0.27436000
    88  C          0.76616000       0.87616000       0.22564000
    89  H          0.25290000       0.68670000       0.75050000
    90  H          0.24710000       0.18670000       0.74950000
    91  H          0.74710000       0.31330000       0.24950000
    92  H          0.75290000       0.81330000       0.25050000
    93  C          0.24567000       0.61294000       0.63524000
    94  C          0.25433000       0.11294000       0.86476000
    95  C          0.75433000       0.38706000       0.36476000
    96  C          0.74567000       0.88706000       0.13524000
    97  H          0.21770000       0.66830000       0.59940000
    98  H          0.28230000       0.16830000       0.90060000
    99  H          0.78230000       0.33170000       0.40060000
   100  H          0.71770000       0.83170000       0.09940000
   101  C          0.26686000       0.51914000       0.59774000
   102  C          0.23314000       0.01914000       0.90226000
   103  C          0.73314000       0.48086000       0.40226000
   104  C          0.76686000       0.98086000       0.09774000
   105  C          0.30606000       0.43834000       0.65393000
   106  C          0.19394000       0.93834000       0.84607000
   107  C          0.69394000       0.56166000       0.34607000
   108  C          0.80606000       0.06166000       0.15393000
   109  H          0.31840000       0.37450000       0.63070000
   110  H          0.18160000       0.87450000       0.86930000
   111  H          0.68160000       0.62550000       0.36930000
   112  H          0.81840000       0.12550000       0.13070000
   113  C          0.24546000       0.50264000       0.50123000
   114  C          0.25454000       0.00264000      -0.00123000
   115  C          0.75454000       0.49736000       0.49877000
   116  C          0.74546000      -0.00264000       0.00123000
   117  C          0.13197000       0.55704000       0.44654000
   118  C          0.36803000       0.05704000       0.05346000
   119  C          0.86803000       0.44296000       0.55346000
   120  C          0.63197000       0.94296000       0.94654000
   121  H          0.07010000       0.60400000       0.47060000
   122  H          0.42990000       0.10400000       0.02940000
   123  H          0.92990000       0.39600000       0.52940000
   124  H          0.57010000       0.89600000       0.97060000
   125  C          0.11197000       0.54084000       0.35664000
   126  C          0.38803000       0.04084000       0.14336000
   127  C          0.88803000       0.45916000       0.64336000
   128  C          0.61197000       0.95916000       0.85664000
   129  H          0.03680000       0.57730000       0.32070000
   130  H          0.46320000       0.07730000       0.17930000
   131  H          0.96320000       0.42270000       0.67930000
   132  H          0.53680000       0.92270000       0.82070000
   133  C          0.20197000       0.47134000       0.31984000
   134  C          0.29803000       0.97134000       0.18016000
   135  C          0.79803000       0.52866000       0.68016000
   136  C          0.70197000       0.02866000       0.81984000
   137  H          0.18650000       0.46000000       0.25950000
   138  H          0.31350000       0.96000000       0.24050000
   139  H          0.81350000       0.54000000       0.74050000
   140  H          0.68650000       0.04000000       0.75950000
   141  C          0.31567000       0.41804000       0.37314000
   142  C          0.18433000       0.91804000       0.12686000
   143  C          0.68433000       0.58196000       0.62686000
   144  C          0.81567000       0.08196000       0.87314000
   145  H          0.37790000       0.37180000       0.34840000
   146  H          0.12210000       0.87180000       0.15160000
   147  H          0.62210000       0.62820000       0.65160000
   148  H          0.87790000       0.12820000       0.84840000
   149  C          0.33667000       0.43344000       0.46324000
   150  C          0.16333000       0.93344000       0.03676000
   151  C          0.66333000       0.56656000       0.53676000
   152  C          0.83667000       0.06656000       0.96324000
   153  H          0.41260000       0.39700000       0.49850000
   154  H          0.08740000       0.89700000       0.00150000
   155  H          0.58740000       0.60300000       0.50150000
   156  H          0.91260000       0.10300000      -0.00150000
