data_MULLAJ
_symmetry_space_group_name_H-M    'P1'
_symmetry_Int_Tables_number       1
loop_
_symmetry_equiv_pos_site_id
_symmetry_equiv_pos_as_xyz
1 x,y,z
_cell_length_a                   12.0312
_cell_length_b                   9.435119
_cell_length_c                   15.4843
_cell_angle_alpha                90.0
_cell_angle_beta                 104.663
_cell_angle_gamma                90.0
loop_
_atom_site_label
_atom_site_type_symbol
_atom_site_fract_x
_atom_site_fract_y
_atom_site_fract_z
     1  Br         0.77737300       0.42900400       0.08562200
     2  Br         0.22262700       0.92900400       0.41437800
     3  Br         0.22262700       0.57099600       0.91437800
     4  Br         0.77737300       0.07099600       0.58562200
     5  S          0.60817700       0.68103900       0.05282500
     6  S          0.39182300       0.18103900       0.44717500
     7  S          0.39182300       0.31896100       0.94717500
     8  S          0.60817700       0.81896100       0.55282500
     9  O          0.73322000       0.50863000       0.88161840
    10  O          0.26678000       0.00863000       0.61838160
    11  O          0.26678000       0.49137000       0.11838160
    12  O          0.73322000      -0.00863000       0.38161840
    13  O          0.66982000       0.78893000       0.11053140
    14  O          0.33018000       0.28893000       0.38946860
    15  O          0.33018000       0.21107000       0.88946860
    16  O          0.66982000       0.71107000       0.61053140
    17  O          0.53232000       0.59463000       0.08766150
    18  O          0.46768000       0.09463000       0.41233850
    19  O          0.46768000       0.40537000       0.91233850
    20  O          0.53232000       0.90537000       0.58766150
    21  N          0.69922000       0.58183000       0.01413170
    22  N          0.30078000       0.08183000       0.48586830
    23  N          0.30078000       0.41817000       0.98586830
    24  N          0.69922000       0.91817000       0.51413170
    25  C          0.68053000       0.58134000       0.92168000
    26  C          0.31947000       0.08134000       0.57832000
    27  C          0.31947000       0.41866000       0.07832000
    28  C          0.68053000       0.91866000       0.42168000
    29  C          0.58883000       0.68493000       0.88348000
    30  C          0.41117000       0.18493000       0.61652000
    31  C          0.41117000       0.31507000       0.11652000
    32  C          0.58883000       0.81507000       0.38348000
    33  C          0.54143000       0.74793000       0.94638000
    34  C          0.45857000       0.24793000       0.55362000
    35  C          0.45857000       0.25207000       0.05362000
    36  C          0.54143000       0.75207000       0.44638000
    37  C          0.45453000       0.84604000       0.92548000
    38  C          0.54547000       0.34604000       0.57452000
    39  C          0.54547000       0.15396000       0.07452000
    40  C          0.45453000       0.65396000       0.42548000
    41  H          0.42350000       0.88790000       0.97010000
    42  H          0.57650000       0.38790000       0.52990000
    43  H          0.57650000       0.11210000       0.02990000
    44  H          0.42350000       0.61210000       0.47010000
    45  C          0.41413000       0.88114000       0.83598000
    46  C          0.58587000       0.38114000       0.66402000
    47  C          0.58587000       0.11886000       0.16402000
    48  C          0.41413000       0.61886000       0.33598000
    49  H          0.35420000       0.94890000       0.81870000
    50  H          0.64580000       0.44890000       0.68130000
    51  H          0.64580000       0.05110000       0.18130000
    52  H          0.35420000       0.55110000       0.31870000
    53  C          0.45923000       0.81924000       0.77178000
    54  C          0.54077000       0.31924000       0.72822000
    55  C          0.54077000       0.18076000       0.22822000
    56  C          0.45923000       0.68076000       0.27178000
    57  H          0.42920000       0.84430000       0.71090000
    58  H          0.57080000       0.34430000       0.78910000
    59  H          0.57080000       0.15570000       0.28910000
    60  H          0.42920000       0.65570000       0.21090000
    61  C          0.54763000       0.72124000       0.79428000
    62  C          0.45237000       0.22124000       0.70572000
    63  C          0.45237000       0.27876000       0.20572000
    64  C          0.54763000       0.77876000       0.29428000
    65  H          0.57910000       0.67990000       0.74980000
    66  H          0.42090000       0.17990000       0.75020000
    67  H          0.42090000       0.32010000       0.25020000
    68  H          0.57910000       0.82010000       0.24980000
    69  O          0.86582000       0.23713000       0.17151160
    70  O          0.13418000       0.73713000       0.32848840
    71  O          0.13418000       0.76287000       0.82848840
    72  O          0.86582000       0.26287000       0.67151160
    73  N          0.93062000       0.27463000       0.25207190
    74  N          0.06938000       0.77463000       0.24792810
    75  N          0.06938000       0.72537000       0.74792810
    76  N          0.93062000       0.22537000       0.75207190
    77  C          0.01513000       0.36964000       0.25882000
    78  C          0.98487000       0.86964000       0.24118000
    79  C          0.98487000       0.63036000       0.74118000
    80  C          0.01513000       0.13036000       0.75882000
    81  H          0.02920000       0.40960000       0.20630000
    82  H          0.97080000       0.90960000       0.29370000
    83  H          0.97080000       0.59040000       0.79370000
    84  H          0.02920000       0.09040000       0.70630000
    85  C          0.08123000       0.40944000       0.34062000
    86  C          0.91877000       0.90944000       0.15938000
    87  C          0.91877000       0.59056000       0.65938000
    88  C          0.08123000       0.09056000       0.84062000
    89  H          0.14110000       0.47630000       0.34350000
    90  H          0.85890000       0.97630000       0.15650000
    91  H          0.85890000       0.52370000       0.65650000
    92  H          0.14110000       0.02370000       0.84350000
    93  C          0.06383000       0.35544000       0.41932000
    94  C          0.93617000       0.85544000       0.08068000
    95  C          0.93617000       0.64456000       0.58068000
    96  C          0.06383000       0.14456000       0.91932000
    97  C          0.97653000       0.25464000       0.40862000
    98  C          0.02347000       0.75464000       0.09138000
    99  C          0.02347000       0.74536000       0.59138000
   100  C          0.97653000       0.24536000       0.90862000
   101  H          0.96230000       0.21100000       0.46010000
   102  H          0.03770000       0.71100000       0.03990000
   103  H          0.03770000       0.78900000       0.53990000
   104  H          0.96230000       0.28900000       0.96010000
   105  C          0.91053000       0.21674000       0.32592000
   106  C          0.08947000       0.71674000       0.17408000
   107  C          0.08947000       0.78326000       0.67408000
   108  C          0.91053000       0.28326000       0.82592000
   109  H          0.85060000       0.14940000       0.32090000
   110  H          0.14940000       0.64940000       0.17910000
   111  H          0.14940000       0.85060000       0.67910000
   112  H          0.85060000       0.35060000       0.82090000
   113  C          0.13253000       0.40304000       0.50782000
   114  C          0.86747000       0.90304000      -0.00782000
   115  C          0.86747000       0.59696000       0.49218000
   116  C          0.13253000       0.09696000       0.00782000
   117  C          0.20863000       0.51544000       0.51552000
   118  C          0.79137000       0.01544000       0.98448000
   119  C          0.79137000       0.48456000       0.48448000
   120  C          0.20863000       0.98456000       0.01552000
   121  H          0.21650000       0.56200000       0.46300000
   122  H          0.78350000       0.06200000       0.03700000
   123  H          0.78350000       0.43800000       0.53700000
   124  H          0.21650000       0.93800000       0.96300000
   125  C          0.27363000       0.56125000       0.59803000
   126  C          0.72637000       0.06125000       0.90197000
   127  C          0.72637000       0.43875000       0.40197000
   128  C          0.27363000       0.93875000       0.09803000
   129  H          0.32550000       0.63820000       0.60130000
   130  H          0.67450000       0.13820000       0.89870000
   131  H          0.67450000       0.36180000       0.39870000
   132  H          0.32550000       0.86180000       0.10130000
   133  C          0.26343000       0.49645000       0.67463000
   134  C          0.73657000      -0.00355000       0.82537000
   135  C          0.73657000       0.50355000       0.32537000
   136  C          0.26343000       0.00355000       0.17463000
   137  H          0.30870000       0.52690000       0.73110000
   138  H          0.69130000       0.02690000       0.76890000
   139  H          0.69130000       0.47310000       0.26890000
   140  H          0.30870000       0.97310000       0.23110000
   141  C          0.18754000       0.38755000       0.66873000
   142  C          0.81246000       0.88755000       0.83127000
   143  C          0.81246000       0.61245000       0.33127000
   144  C          0.18754000       0.11245000       0.16873000
   145  H          0.17910000       0.34290000       0.72170000
   146  H          0.82090000       0.84290000       0.77830000
   147  H          0.82090000       0.65710000       0.27830000
   148  H          0.17910000       0.15710000       0.22170000
   149  C          0.12223000       0.34084000       0.58672000
   150  C          0.87777000       0.84084000       0.91328000
   151  C          0.87777000       0.65916000       0.41328000
   152  C          0.12223000       0.15916000       0.08672000
   153  H          0.06960000       0.26490000       0.58440000
   154  H          0.93040000       0.76490000       0.91560000
   155  H          0.93040000       0.73510000       0.41560000
   156  H          0.06960000       0.23510000       0.08440000
