data_MULLIR
_symmetry_space_group_name_H-M    'P1'
_symmetry_Int_Tables_number       1
loop_
_symmetry_equiv_pos_site_id
_symmetry_equiv_pos_as_xyz
1 x,y,z
_cell_length_a                   7.988212
_cell_length_b                   8.65468
_cell_length_c                   12.456715
_cell_angle_alpha                108.7229
_cell_angle_beta                 105.11412
_cell_angle_gamma                93.9491
loop_
_atom_site_label
_atom_site_type_symbol
_atom_site_fract_x
_atom_site_fract_y
_atom_site_fract_z
     1  I          0.45907800       0.90828700       0.70907500
     2  I          0.54092200       0.09171300       0.29092500
     3  S          0.39443000       0.51653000       0.67092000
     4  S          0.60557000       0.48347000       0.32908000
     5  O          0.16849000       0.67768000       0.43795000
     6  O          0.83151000       0.32232000       0.56205000
     7  O          0.57829000       0.50818000       0.69636000
     8  O          0.42171000       0.49182000       0.30364000
     9  O          0.32039000       0.54198000       0.76755000
    10  O          0.67961000       0.45802000       0.23245000
    11  N          0.34661100       0.65269000       0.60637000
    12  N          0.65338900       0.34731000       0.39363000
    13  C          0.22561300       0.59251100       0.49408000
    14  C          0.77438700       0.40748900       0.50592000
    15  C          0.17971300       0.40681100       0.45578000
    16  C          0.82028700       0.59318900       0.54422000
    17  C          0.26361200       0.34971100       0.54318000
    18  C          0.73638800       0.65028900       0.45682000
    19  C          0.24101300       0.18621300       0.53128000
    20  C          0.75898700       0.81378700       0.46872000
    21  H          0.29880000       0.15120000       0.59220000
    22  H          0.70120000       0.84880000       0.40780000
    23  C          0.12951400       0.07471200       0.42559000
    24  C          0.87048600       0.92528800       0.57441000
    25  H          0.11090000       0.96260000       0.41430000
    26  H          0.88910000       0.03740000       0.58570000
    27  C          0.04611300       0.13041200       0.33698000
    28  C          0.95388700       0.86958800       0.66302000
    29  H          0.97370000       0.05420000       0.26540000
    30  H          0.02630000       0.94580000       0.73460000
    31  C          0.06731400       0.29861200       0.35158000
    32  C          0.93268600       0.70138800       0.64842000
    33  H          0.00680000       0.33540000       0.29230000
    34  H         -0.00680000       0.66460000       0.70770000
    35  O          0.56888000       0.18408000       0.82485000
    36  O          0.43112000       0.81592000       0.17515000
    37  N          0.74969000       0.21919000       0.86147000
    38  N          0.25031000       0.78081000       0.13853000
    39  C          0.83761200       0.19651200       0.96278000
    40  C          0.16238800       0.80348800       0.03722000
    41  C          0.02001300       0.24241200      -0.00102000
    42  C         -0.02001300       0.75758800       0.00102000
    43  H          0.08560000       0.22620000       0.06680000
    44  H          0.91440000       0.77380000       0.93320000
    45  C          0.10861300       0.31141100       0.93828000
    46  C          0.89138700       0.68858900       0.06172000
    47  C          0.00521300       0.33071100       0.83518000
    48  C         -0.00521300       0.66928900       0.16482000
    49  H          0.05810000       0.37680000       0.79170000
    50  H          0.94190000       0.62320000       0.20830000
    51  C          0.82581300       0.28161100       0.79807000
    52  C          0.17418700       0.71838900       0.20193000
    53  H          0.75790000       0.29220000       0.72850000
    54  H          0.24210000       0.70780000       0.27150000
    55  C          0.73831400       0.13011300       0.02718000
    56  C          0.26168600       0.86988700       0.97282000
    57  H          0.67780000       0.21310000       0.06510000
    58  H          0.32220000       0.78690000       0.93490000
    59  H          0.81800000       0.09930000       0.08610000
    60  H          0.18200000       0.90070000       0.91390000
    61  H          0.65430000       0.03470000       0.97220000
    62  H          0.34570000       0.96530000       0.02780000
    63  C          0.30171400       0.36611400       0.98179000
    64  C          0.69828600       0.63388600       0.01821000
    65  H          0.35330000       0.30680000       0.92250000
    66  H          0.64670000       0.69320000       0.07750000
    67  H          0.34930000       0.34440000       0.05350000
    68  H          0.65070000       0.65560000       0.94650000
    69  H          0.32740000       0.48260000      -0.00280000
    70  H          0.67260000       0.51740000       0.00280000
