data_MULMUE
_symmetry_space_group_name_H-M    'P1'
_symmetry_Int_Tables_number       1
loop_
_symmetry_equiv_pos_site_id
_symmetry_equiv_pos_as_xyz
1 x,y,z
_cell_length_a                   8.80363
_cell_length_b                   7.97872
_cell_length_c                   42.316412
_cell_angle_alpha                90.0
_cell_angle_beta                 90.9843
_cell_angle_gamma                90.0
loop_
_atom_site_label
_atom_site_type_symbol
_atom_site_fract_x
_atom_site_fract_y
_atom_site_fract_z
     1  I          0.49339300       0.30026300       0.28353200
     2  I          0.00660700       0.80026300       0.21646800
     3  I          0.50660700       0.69973700       0.71646800
     4  I         -0.00660700       0.19973700       0.78353200
     5  S          0.67393120       0.51789130       0.33980200
     6  S          0.82606880       0.01789130       0.16019800
     7  S          0.32606880       0.48210870       0.66019800
     8  S          0.17393120       0.98210870       0.83980200
     9  O          0.59733000       0.68114000       0.25911700
    10  O          0.90267000       0.18114000       0.24088300
    11  O          0.40267000       0.31886000       0.74088300
    12  O          0.09733000       0.81886000       0.75911700
    13  O          0.77373000       0.37884000       0.34504700
    14  O          0.72627000       0.87884000       0.15495300
    15  O          0.22627000       0.62116000       0.65495300
    16  O          0.27373000       0.12116000       0.84504700
    17  O          0.55253000       0.53754000       0.36186700
    18  O          0.94747000       0.03754000       0.13813300
    19  O          0.44747000       0.46246000       0.63813300
    20  O          0.05253000       0.96246000       0.86186700
    21  N          0.60604000       0.51534000       0.30339800
    22  N          0.89396000       0.01534000       0.19660200
    23  N          0.39396000       0.48466000       0.69660200
    24  N          0.10604000      -0.01534000       0.80339800
    25  C          0.64065000       0.65695000       0.28599100
    26  C          0.85935000       0.15695000       0.21400900
    27  C          0.35935000       0.34305000       0.71400900
    28  C          0.14065000       0.84305000       0.78599100
    29  C          0.73865000       0.77145000       0.30534100
    30  C          0.76135000       0.27145000       0.19465900
    31  C          0.26135000       0.22855000       0.69465900
    32  C          0.23865000       0.72855000       0.80534100
    33  C          0.76924000       0.70875000       0.33522100
    34  C          0.73076000       0.20875000       0.16477900
    35  C          0.23076000       0.29125000       0.66477900
    36  C          0.26924000       0.79125000       0.83522100
    37  C          0.85895000       0.79296000       0.35678110
    38  C          0.64105000       0.29296000       0.14321890
    39  C          0.14105000       0.20704000       0.64321890
    40  C          0.35895000       0.70704000       0.85678110
    41  H          0.88070000       0.74750000       0.37710000
    42  H          0.61930000       0.24750000       0.12290000
    43  H          0.11930000       0.25250000       0.62290000
    44  H          0.38070000       0.75250000       0.87710000
    45  C          0.91625000       0.94656000       0.34769140
    46  C          0.58375000       0.44656000       0.15230860
    47  C          0.08375000       0.05344000       0.65230860
    48  C          0.41625000       0.55344000       0.84769140
    49  H          0.97730000       0.00900000       0.36220000
    50  H          0.52270000       0.50900000       0.13780000
    51  H          0.02270000      -0.00900000       0.63780000
    52  H          0.47730000       0.49100000       0.86220000
    53  C          0.88645000       0.01056000       0.31804140
    54  C          0.61355000       0.51056000       0.18195860
    55  C          0.11355000      -0.01056000       0.68195860
    56  C          0.38645000       0.48944000       0.81804140
    57  H          0.92800000       0.11590000       0.31240000
    58  H          0.57200000       0.61590000       0.18760000
    59  H          0.07200000       0.88410000       0.68760000
    60  H          0.42800000       0.38410000       0.81240000
    61  C          0.79665000       0.92395000       0.29630110
    62  C          0.70335000       0.42395000       0.20369890
    63  C          0.20335000       0.07605000       0.70369890
    64  C          0.29665000       0.57605000       0.79630110
    65  H          0.77600000       0.96830000       0.27580000
    66  H          0.72400000       0.46830000       0.22420000
    67  H          0.22400000       0.03170000       0.72420000
    68  H          0.27600000       0.53170000       0.77580000
    69  O          0.37374000       0.07034000       0.26170700
    70  O          0.12626000       0.57034000       0.23829300
    71  O          0.62626000       0.92966000       0.73829300
    72  O          0.87374000       0.42966000       0.76170700
    73  N          0.35564000       0.08114000       0.22992800
    74  N          0.14436000       0.58114000       0.27007200
    75  N          0.64436000       0.91886000       0.77007200
    76  N          0.85564000       0.41886000       0.72992800
    77  C          0.41905000       0.96275000       0.21200100
    78  C          0.08095000       0.46275000       0.28799900
    79  C          0.58095000       0.03725000       0.78799900
    80  C          0.91905000       0.53725000       0.71200100
    81  H          0.48070000       0.87800000       0.22140000
    82  H          0.01930000       0.37800000       0.27860000
    83  H          0.51930000       0.12200000       0.77860000
    84  H          0.98070000       0.62200000       0.72140000
    85  C          0.39375000       0.96594000       0.17997110
    86  C          0.10625000       0.46594000       0.32002890
    87  C          0.60625000       0.03406000       0.82002890
    88  C          0.89375000       0.53406000       0.67997110
    89  H          0.43570000       0.88120000       0.16700000
    90  H          0.06430000       0.38120000       0.33300000
    91  H          0.56430000       0.11880000       0.83300000
    92  H          0.93570000       0.61880000       0.66700000
    93  C          0.30745000       0.09245000       0.16657100
    94  C          0.19255000       0.59245000       0.33342900
    95  C          0.69255000       0.90755000       0.83342900
    96  C          0.80745000       0.40755000       0.66657100
    97  H          0.29020000       0.09430000       0.14440000
    98  H          0.20980000       0.59430000       0.35560000
    99  H          0.70980000       0.90570000       0.85560000
   100  H          0.79020000       0.40570000       0.64440000
   101  C          0.24574000       0.21625000       0.18525900
   102  C          0.25426000       0.71625000       0.31474100
   103  C          0.75426000       0.78375000       0.81474100
   104  C          0.74574000       0.28375000       0.68525900
   105  C          0.27044000       0.20545000       0.21750100
   106  C          0.22956000       0.70545000       0.28249900
   107  C          0.72956000       0.79455000       0.78249900
   108  C          0.77044000       0.29455000       0.71750100
   109  H          0.22690000       0.28660000       0.23100000
   110  H          0.27310000       0.78660000       0.26900000
   111  H          0.77310000       0.71340000       0.76900000
   112  H          0.72690000       0.21340000       0.73100000
   113  C          0.15605000       0.36065000       0.17211100
   114  C          0.34395000       0.86065000       0.32788900
   115  C          0.84395000       0.63935000       0.82788900
   116  C          0.65605000       0.13935000       0.67211100
   117  H          0.08290000       0.39840000       0.18780000
   118  H          0.41710000       0.89840000       0.31220000
   119  H          0.91710000       0.60160000       0.81220000
   120  H          0.58290000       0.10160000       0.68780000
   121  H          0.10140000       0.32500000       0.15290000
   122  H          0.39860000       0.82500000       0.34710000
   123  H          0.89860000       0.67500000       0.84710000
   124  H          0.60140000       0.17500000       0.65290000
   125  H          0.22490000       0.45280000       0.16710000
   126  H          0.27510000       0.95280000       0.33290000
   127  H          0.77510000       0.54720000       0.83290000
   128  H          0.72490000       0.04720000       0.66710000
   129  I          0.04871300       0.35029300       0.41658200
   130  I          0.45128700       0.85029300       0.08341800
   131  I          0.95128700       0.64970700       0.58341800
   132  I          0.54871300       0.14970700       0.91658200
   133  S          0.79716890       0.43243120       0.47167200
   134  S          0.70283110       0.93243120       0.02832800
   135  S          0.20283110       0.56756880       0.52832800
   136  S          0.29716890       0.06756880       0.97167200
   137  O          0.01483000       0.76294000       0.43058700
   138  O          0.48517000       0.26294000       0.06941300
   139  O         -0.01483000       0.23706000       0.56941300
   140  O          0.51483000       0.73706000       0.93058700
   141  O          0.67087000       0.36224000       0.45445700
   142  O          0.82913000       0.86224000       0.04554300
   143  O          0.32913000       0.63776000       0.54554300
   144  O          0.17087000       0.13776000       0.95445700
   145  O          0.86957000       0.32643000       0.49457700
   146  O          0.63043000       0.82643000       0.00542300
   147  O          0.13043000       0.67357000       0.50542300
   148  O          0.36957000       0.17357000       0.99457700
   149  N          0.92207000       0.51024000       0.44717800
   150  N          0.57793000       0.01024000       0.05282200
   151  N          0.07793000       0.48976000       0.55282200
   152  N          0.42207000      -0.01024000       0.94717800
   153  C          0.93456000       0.68265000       0.44805100
   154  C          0.56544000       0.18265000       0.05194900
   155  C          0.06544000       0.31735000       0.55194900
   156  C          0.43456000       0.81735000       0.94805100
   157  C          0.83396000       0.75165000       0.47267900
   158  C          0.66604000       0.25165000       0.02732100
   159  C          0.16604000       0.24835000       0.52732100
   160  C          0.33396000       0.74835000       0.97267900
   161  C          0.75216000       0.62885000       0.48770900
   162  C          0.74784000       0.12885000       0.01229100
   163  C          0.24784000       0.37115000       0.51229100
   164  C          0.25216000       0.87115000       0.98770900
   165  C          0.65016000       0.66405000       0.51104900
   166  C          0.84984000       0.16405000       0.98895100
   167  C          0.34984000       0.33595000       0.48895100
   168  C          0.15016000       0.83595000       0.01104900
   169  H          0.59480000       0.57790000       0.52120000
   170  H          0.90520000       0.07790000       0.97880000
   171  H          0.40520000       0.42210000       0.47880000
   172  H          0.09480000       0.92210000       0.02120000
   173  C          0.63226000       0.83155000       0.51901100
   174  C          0.86774000       0.33155000       0.98098900
   175  C          0.36774000       0.16845000       0.48098900
   176  C          0.13226000       0.66845000       0.01901100
   177  H          0.56130000       0.86120000       0.53470000
   178  H          0.93870000       0.36120000       0.96530000
   179  H          0.43870000       0.13880000       0.46530000
   180  H          0.06130000       0.63880000       0.03470000
   181  C          0.71545000       0.95575000       0.50463100
   182  C          0.78455000       0.45575000       0.99536900
   183  C          0.28455000       0.04425000       0.49536900
   184  C          0.21545000       0.54425000       0.00463100
   185  H          0.70260000       0.06900000       0.51090000
   186  H          0.79740000       0.56900000       0.98910000
   187  H          0.29740000       0.93100000       0.48910000
   188  H          0.20260000       0.43100000       0.01090000
   189  C          0.81765000       0.91765000       0.48107100
   190  C          0.68235000       0.41765000       0.01892900
   191  C          0.18235000       0.08235000       0.51892900
   192  C          0.31765000       0.58235000       0.98107100
   193  H          0.87460000       0.00310000       0.47110000
   194  H          0.62540000       0.50310000       0.02890000
   195  H          0.12540000      -0.00310000       0.52890000
   196  H          0.37460000       0.49690000       0.97110000
   197  O          0.17843000       0.18403000       0.38164600
   198  O          0.32157000       0.68403000       0.11835400
   199  O          0.82157000       0.81597000       0.61835400
   200  O          0.67843000       0.31597000       0.88164600
   201  N          0.30824000       0.11254000       0.39238700
   202  N          0.19176000       0.61254000       0.10761300
   203  N          0.69176000       0.88746000       0.60761300
   204  N          0.80824000       0.38746000       0.89238700
   205  C          0.44085000       0.18765000       0.38634100
   206  C          0.05915000       0.68765000       0.11365900
   207  C          0.55915000       0.81235000       0.61365900
   208  C          0.94085000       0.31235000       0.88634100
   209  H          0.44300000       0.29390000       0.37620000
   210  H          0.05700000       0.79390000       0.12380000
   211  H          0.55700000       0.70610000       0.62380000
   212  H          0.94300000       0.20610000       0.87620000
   213  C          0.57295000       0.10856000       0.39496110
   214  C          0.92705000       0.60856000       0.10503890
   215  C          0.42705000       0.89144000       0.60503890
   216  C          0.07295000       0.39144000       0.89496110
   217  H          0.66760000       0.16030000       0.39080000
   218  H          0.83240000       0.66030000       0.10920000
   219  H          0.33240000       0.83970000       0.60920000
   220  H          0.16760000       0.33970000       0.89080000
   221  C          0.57005000       0.95474000       0.40966100
   222  C          0.92995000       0.45474000       0.09033900
   223  C          0.42995000       0.04526000       0.59033900
   224  C          0.07005000       0.54526000       0.90966100
   225  H          0.66230000       0.89970000       0.41520000
   226  H          0.83770000       0.39970000       0.08480000
   227  H          0.33770000       0.10030000       0.58480000
   228  H          0.16230000       0.60030000       0.91520000
   229  C          0.43175000       0.88055000       0.41627900
   230  C          0.06825000       0.38055000       0.08372100
   231  C          0.56825000       0.11945000       0.58372100
   232  C          0.93175000       0.61945000       0.91627900
   233  C          0.30095000       0.96415000       0.40743900
   234  C          0.19905000       0.46415000       0.09256100
   235  C          0.69905000       0.03585000       0.59256100
   236  C          0.80095000       0.53585000       0.90743900
   237  H          0.20480000       0.91680000       0.41200000
   238  H          0.29520000       0.41680000       0.08800000
   239  H          0.79520000       0.08320000       0.58800000
   240  H          0.70480000       0.58320000       0.91200000
   241  C          0.42235000       0.71394000       0.43254110
   242  C          0.07765000       0.21394000       0.06745890
   243  C          0.57765000       0.28606000       0.56745890
   244  C          0.92235000       0.78606000       0.93254110
   245  H          0.31550000       0.68570000       0.43600000
   246  H          0.18450000       0.18570000       0.06400000
   247  H          0.68450000       0.31430000       0.56400000
   248  H          0.81550000       0.81430000       0.93600000
   249  H          0.47640000       0.71970000       0.45290000
   250  H          0.02360000       0.21970000       0.04710000
   251  H          0.52360000       0.28030000       0.54710000
   252  H          0.97640000       0.78030000       0.95290000
   253  H          0.46880000       0.62780000       0.41930000
   254  H          0.03120000       0.12780000       0.08070000
   255  H          0.53120000       0.37220000       0.58070000
   256  H          0.96880000       0.87220000       0.91930000
