data_MULNEP
_symmetry_space_group_name_H-M    'P1'
_symmetry_Int_Tables_number       1
loop_
_symmetry_equiv_pos_site_id
_symmetry_equiv_pos_as_xyz
1 x,y,z
_cell_length_a                   8.46547
_cell_length_b                   8.96856
_cell_length_c                   11.50469
_cell_angle_alpha                91.2516
_cell_angle_beta                 103.1147
_cell_angle_gamma                116.3058
loop_
_atom_site_label
_atom_site_type_symbol
_atom_site_fract_x
_atom_site_fract_y
_atom_site_fract_z
     1  I          0.87842800       0.30232700       0.71142500
     2  I          0.12157200       0.69767300       0.28857500
     3  S          0.90643000       0.67653000       0.68172000
     4  S          0.09357000       0.32347000       0.31828000
     5  O          0.64861100       0.31749000       0.43397000
     6  O          0.35138900       0.68251000       0.56603000
     7  O          0.10259000       0.76549000       0.71306000
     8  O          0.89741000       0.23451000       0.28694000
     9  O          0.82681000       0.67249000       0.77956000
    10  O          0.17319000       0.32751000       0.22044000
    11  N          0.83141300       0.48521100       0.61218000
    12  N          0.16858700       0.51478900       0.38782000
    13  C          0.72071300       0.45101300       0.49511000
    14  C          0.27928700       0.54898700       0.50489000
    15  C          0.70791300       0.60691300       0.46431000
    16  C          0.29208700       0.39308700       0.53569000
    17  C          0.80481300       0.74211300       0.55501000
    18  C          0.19518700       0.25788700       0.44499000
    19  C          0.81191300       0.89531200       0.54639000
    20  C          0.18808700       0.10468800       0.45361000
    21  H          0.87900000      -0.01730000       0.60980000
    22  H          0.12100000       0.01730000       0.39020000
    23  C          0.71421400       0.91681300       0.43781000
    24  C          0.28578600       0.08318700       0.56219000
    25  H          0.71410000       0.01940000       0.42800000
    26  H          0.28590000      -0.01940000       0.57200000
    27  C          0.61591500       0.78031400       0.34381000
    28  C          0.38408500       0.21968600       0.65619000
    29  H          0.55260000       0.79540000       0.27150000
    30  H          0.44740000       0.20460000       0.72850000
    31  C          0.61031300       0.62681400       0.35499000
    32  C          0.38968700       0.37318600       0.64501000
    33  H          0.54390000       0.53840000       0.29190000
    34  H          0.45610000       0.46160000       0.70810000
    35  O          0.93271000       0.10951000       0.81887000
    36  O          0.06729000       0.89049000       0.18113000
    37  O          0.42781100       0.72898900       0.04627000
    38  O          0.57218900       0.27101100       0.95373000
    39  N          0.79771200       0.01861000       0.87048000
    40  N          0.20228800      -0.01861000       0.12952000
    41  C          0.63301400       0.89928700       0.80308000
    42  C          0.36698600       0.10071300       0.19692000
    43  H          0.60810000       0.88510000       0.71940000
    44  H          0.39190000       0.11490000       0.28060000
    45  C          0.50331400       0.79968600       0.85849000
    46  C          0.49668600       0.20031400       0.14151000
    47  H          0.39060000       0.71770000       0.81220000
    48  H          0.60940000       0.28230000       0.18780000
    49  C          0.53931400       0.82088800       0.98231000
    50  C          0.46068600       0.17911200       0.01769000
    51  C          0.71001500       0.94918600       0.04781000
    52  C          0.28998500       0.05081400       0.95219000
    53  H          0.73710000       0.96490000       0.13150000
    54  H          0.26290000       0.03510000       0.86850000
    55  C          0.83421500       0.04921300      -0.00571000
    56  C          0.16578500       0.95078700       0.00571000
    57  H          0.94320000       0.13760000       0.03910000
    58  H          0.05680000       0.86240000       0.96090000
    59  C          0.26001500       0.58428500       0.98081100
    60  C          0.73998500       0.41571500       0.01918900
    61  H          0.18990000       0.62040000       0.92130000
    62  H          0.81010000       0.37960000       0.07870000
    63  H          0.19020000       0.52940000       0.03600000
    64  H          0.80980000       0.47060000       0.96400000
    65  H          0.28880000       0.50740000       0.94180000
    66  H          0.71120000       0.49260000       0.05820000
