data_MULQOC
_symmetry_space_group_name_H-M    'P1'
_symmetry_Int_Tables_number       1
loop_
_symmetry_equiv_pos_site_id
_symmetry_equiv_pos_as_xyz
1 x,y,z
_cell_length_a                   7.136514
_cell_length_b                   8.645217
_cell_length_c                   13.8383
_cell_angle_alpha                84.543
_cell_angle_beta                 88.603
_cell_angle_gamma                89.923
loop_
_atom_site_label
_atom_site_type_symbol
_atom_site_fract_x
_atom_site_fract_y
_atom_site_fract_z
     1  Br         0.28808500       0.13534500       0.70411300
     2  Br         0.71191500       0.86465500       0.29588700
     3  S          0.25775130       0.49521110       0.69108600
     4  S          0.74224870       0.50478890       0.30891400
     5  O          0.26624000       0.25353000       0.47983190
     6  O          0.73376000       0.74647000       0.52016810
     7  O          0.08944000       0.49843000       0.74867180
     8  O          0.91056000       0.50157000       0.25132820
     9  O          0.43004000       0.51533000       0.73842180
    10  O          0.56996000       0.48467000       0.26157820
    11  N          0.26554000       0.33494000       0.63352000
    12  N          0.73446000       0.66506000       0.36648000
    13  C          0.26065000       0.35645000       0.53223000
    14  C          0.73935000       0.64355000       0.46777000
    15  C          0.24565000       0.52694000       0.50332000
    16  C          0.75435000       0.47306000       0.49668000
    17  C          0.24245000       0.61575000       0.58182000
    18  C          0.75755000       0.38425000       0.41818000
    19  C          0.22755000       0.77485000       0.57123000
    20  C          0.77245000       0.22515000       0.42877000
    21  H          0.22530000       0.83380000       0.62580000
    22  H          0.77470000       0.16620000       0.37420000
    23  C          0.21575000       0.84615000       0.47663000
    24  C          0.78425000       0.15385000       0.52337000
    25  H          0.20660000       0.95600000       0.46600000
    26  H          0.79340000       0.04400000       0.53400000
    27  C          0.21725000       0.75805000       0.39833000
    28  C          0.78275000       0.24195000       0.60167000
    29  H          0.20760000       0.80900000       0.33470000
    30  H          0.79240000       0.19100000       0.66530000
    31  C          0.23215000       0.59795000       0.40983000
    32  C          0.76785000       0.40205000       0.59017000
    33  H          0.23300000       0.53860000       0.35530000
    34  H          0.76700000       0.46140000       0.64470000
    35  O          0.32383000       0.88987000       0.78632180
    36  O          0.67617000       0.11013000       0.21367820
    37  N          0.50664000       0.86686000       0.80402000
    38  N          0.49336000       0.13314000       0.19598000
    39  C          0.56365000       0.86566000       0.89633000
    40  C          0.43635000       0.13434000       0.10367000
    41  H          0.47420000       0.87910000       0.94670000
    42  H          0.52580000       0.12090000       0.05330000
    43  C          0.75025000       0.84506000       0.91853000
    44  C          0.24975000       0.15494000       0.08147000
    45  C          0.87705000       0.82565000       0.84333000
    46  C          0.12295000       0.17435000       0.15667000
    47  H          0.00670000       0.81400000       0.85590000
    48  H         -0.00670000       0.18600000       0.14410000
    49  C          0.81345000       0.82345000       0.74953000
    50  C          0.18655000       0.17655000       0.25047000
    51  H          0.89960000       0.80690000       0.69810000
    52  H          0.10040000       0.19310000       0.30190000
    53  C          0.62765000       0.84505000       0.73053000
    54  C          0.37235000       0.15495000       0.26947000
    55  H          0.58440000       0.84470000       0.66610000
    56  H          0.41560000       0.15530000       0.33390000
    57  C          0.80716000       0.84755000       0.02273000
    58  C          0.19284000       0.15245000       0.97727000
    59  H          0.83020000       0.95510000       0.03620000
    60  H          0.16980000       0.04490000       0.96380000
    61  H          0.92170000       0.78640000       0.03340000
    62  H          0.07830000       0.21360000       0.96660000
    63  H          0.70650000       0.80290000       0.06600000
    64  H          0.29350000       0.19710000       0.93400000
    65  Cl         0.71241150       0.24122130       0.87115700
    66  Cl         0.28758850       0.75877870       0.12884300
    67  Cl         0.74797140       0.43712130       0.03010700
    68  Cl         0.25202860       0.56287870       0.96989300
    69  C          0.74066000       0.43295000       0.90303000
    70  C          0.25934000       0.56705000       0.09697000
    71  H          0.85820000       0.47730000       0.87280000
    72  H          0.14180000       0.52270000       0.12720000
    73  H          0.63520000       0.49790000       0.87750000
    74  H          0.36480000       0.50210000       0.12250000
