data_MULQIW
_symmetry_space_group_name_H-M    'P1'
_symmetry_Int_Tables_number       1
loop_
_symmetry_equiv_pos_site_id
_symmetry_equiv_pos_as_xyz
1 x,y,z
_cell_length_a                   7.13424
_cell_length_b                   8.65145
_cell_length_c                   12.09327
_cell_angle_alpha                104.0435
_cell_angle_beta                 99.8515
_cell_angle_gamma                90.7815
loop_
_atom_site_label
_atom_site_type_symbol
_atom_site_fract_x
_atom_site_fract_y
_atom_site_fract_z
     1  Br         0.25678300       0.73366300       0.27383200
     2  Br         0.74321700       0.26633700       0.72616800
     3  S          0.23582900       0.38676800       0.29275500
     4  S          0.76417100       0.61323200       0.70724500
     5  O          0.24553000       0.74172000       0.54218150
     6  O          0.75447000       0.25828000       0.45781850
     7  O          0.40863000       0.35232000       0.24938150
     8  O          0.59137000       0.64768000       0.75061850
     9  O          0.06183000       0.34232000       0.21173150
    10  O          0.93817000       0.65768000       0.78826850
    11  N          0.24163000       0.57773000       0.36122180
    12  N          0.75837000       0.42227000       0.63877820
    13  C          0.24133000       0.61023000       0.47932000
    14  C          0.75867000       0.38977000       0.52068000
    15  C          0.23394000       0.45563000       0.51212000
    16  C          0.76606000       0.54437000       0.48788000
    17  C          0.23234000       0.32353000       0.41982000
    18  C          0.76766000       0.67647000       0.58018000
    19  C          0.22604000       0.16863000       0.43022000
    20  C          0.77396000       0.83137000       0.56978000
    21  H          0.22620000       0.08070000       0.36550000
    22  H          0.77380000       0.91930000       0.63450000
    23  C          0.21944000       0.14643000       0.54012000
    24  C          0.78056000       0.85357000       0.45988000
    25  H          0.21460000       0.04160000       0.55120000
    26  H          0.78540000       0.95840000       0.44880000
    27  C          0.22004000       0.27774000       0.63342000
    28  C          0.77996000       0.72226000       0.36658000
    29  H          0.21490000       0.26050000       0.70750000
    30  H          0.78510000       0.73950000       0.29250000
    31  C          0.22774000       0.43273000       0.62122000
    32  C          0.77226000       0.56727000       0.37878000
    33  H          0.22880000       0.52100000       0.68580000
    34  H          0.77120000       0.47900000       0.31420000
    35  O          0.28283000       0.91412000       0.16743150
    36  O          0.71717000       0.08588000       0.83256850
    37  N          0.46033000       0.91413000       0.14546170
    38  N          0.53967000       0.08587000       0.85453830
    39  C          0.50374000       0.80483000       0.05312000
    40  C          0.49626000       0.19517000       0.94688000
    41  C          0.68784000       0.81114000       0.03302000
    42  C          0.31216000       0.18886000       0.96698000
    43  H          0.72120000       0.73690000       0.96840000
    44  H          0.27880000       0.26310000       0.03160000
    45  C          0.82454000       0.92194000       0.10382000
    46  C          0.17546000       0.07806000       0.89618000
    47  H          0.95080000       0.92420000       0.08880000
    48  H          0.04920000       0.07580000       0.91120000
    49  C          0.77454000       0.02974000       0.19742000
    50  C          0.22546000       0.97026000       0.80258000
    51  H          0.86620000       0.10750000       0.24750000
    52  H          0.13380000       0.89250000       0.75250000
    53  C          0.59114000       0.02333000       0.21702000
    54  C          0.40886000       0.97667000       0.78298000
    55  H          0.55610000       0.09630000       0.28150000
    56  H          0.44390000       0.90370000       0.71850000
    57  C          0.34854000       0.68854000       0.98018000
    58  C          0.65146000       0.31146000       0.01982000
    59  H          0.31580000       0.61350000       0.02400000
    60  H          0.68420000       0.38650000       0.97600000
    61  H          0.39150000       0.62960000       0.90990000
    62  H          0.60850000       0.37040000       0.09010000
    63  H          0.23600000       0.74600000       0.95880000
    64  H          0.76400000       0.25400000       0.04120000
