data_MUNZEE
_symmetry_space_group_name_H-M    'P1'
_symmetry_Int_Tables_number       1
loop_
_symmetry_equiv_pos_site_id
_symmetry_equiv_pos_as_xyz
1 x,y,z
_cell_length_a                   10.43396
_cell_length_b                   11.73557
_cell_length_c                   18.766811
_cell_angle_alpha                90.0
_cell_angle_beta                 93.5872
_cell_angle_gamma                90.0
loop_
_atom_site_label
_atom_site_type_symbol
_atom_site_fract_x
_atom_site_fract_y
_atom_site_fract_z
     1  C          0.14477140       0.45504130       0.65011800
     2  C          0.85522860       0.95504130       0.84988200
     3  C          0.85522860       0.54495870       0.34988200
     4  C          0.14477140       0.04495870       0.15011800
     5  C          0.93838000       0.45053000       0.59225150
     6  C          0.06162000       0.95053000       0.90774850
     7  C          0.06162000       0.54947000       0.40774850
     8  C          0.93838000       0.04947000       0.09225150
     9  H          0.94594000       0.37356800       0.57557200
    10  H          0.05406000       0.87356800       0.92442800
    11  H          0.05406000       0.62643200       0.42442800
    12  H          0.94594000       0.12643200       0.07557200
    13  H          0.88557800       0.49350400       0.55826800
    14  H          0.11442200      -0.00649600       0.94173200
    15  H          0.11442200       0.50649600       0.44173200
    16  H          0.88557800       0.00649600       0.05826800
    17  H          0.89999800       0.45032000       0.63741300
    18  H          0.10000200       0.95032000       0.86258700
    19  H          0.10000200       0.54968000       0.36258700
    20  H          0.89999800       0.04968000       0.13741300
    21  N          0.25954110       0.51209100       0.65112600
    22  N          0.74045890       0.01209100       0.84887400
    23  N          0.74045890       0.48790900       0.34887400
    24  N          0.25954110       0.98790900       0.15112600
    25  N          0.35978110       0.45574100       0.69216600
    26  N          0.64021890       0.95574100       0.80783400
    27  N          0.64021890       0.54425900       0.30783400
    28  N          0.35978110       0.04425900       0.19216600
    29  O          0.12027110       0.37895100       0.69001600
    30  O          0.87972890       0.87895100       0.80998400
    31  O          0.87972890       0.62104900       0.30998400
    32  O          0.12027110       0.12104900       0.19001600
    33  O          0.06434120       0.50163120       0.60050700
    34  O          0.93565880       0.00163120       0.89949300
    35  O          0.93565880       0.49836880       0.39949300
    36  O          0.06434120      -0.00163120       0.10050700
    37  H          0.43251900       0.49541500       0.68829000
    38  H          0.56748100      -0.00458500       0.81171000
    39  H          0.56748100       0.50458500       0.31171000
    40  H          0.43251900       0.00458500       0.18829000
    41  H          0.28661900       0.53281600       0.60911100
    42  H          0.71338100       0.03281600       0.89088900
    43  H          0.71338100       0.46718400       0.39088900
    44  H          0.28661900       0.96718400       0.10911100
    45  H          0.37481800       0.38541700       0.67571000
    46  H          0.62518200       0.88541700       0.82429000
    47  H          0.62518200       0.61458300       0.32429000
    48  H          0.37481800       0.11458300       0.17571000
    49  H          0.34081800       0.45051500       0.74041100
    50  H          0.65918200       0.95051500       0.75958900
    51  H          0.65918200       0.54948500       0.25958900
    52  H          0.34081800       0.04948500       0.24041100
    53  C          0.33604120       0.65910100       0.48917600
    54  C          0.66395880       0.15910100       0.01082400
    55  C          0.66395880       0.34089900       0.51082400
    56  C          0.33604120       0.84089900       0.98917600
    57  C          0.29847140       0.76012110       0.52072700
    58  C          0.70152860       0.26012110       0.97927300
    59  C          0.70152860       0.23987890       0.47927300
    60  C          0.29847140       0.73987890       0.02072700
    61  H          0.28303700       0.76077300       0.56899100
    62  H          0.71696300       0.26077300       0.93100900
    63  H          0.71696300       0.23922700       0.43100900
    64  H          0.28303700       0.73922700       0.06899100
    65  C          0.28365130       0.86007110       0.48124700
    66  C          0.71634870       0.36007110       0.01875300
    67  C          0.71634870       0.13992890       0.51875300
    68  C          0.28365130       0.63992890       0.98124700
    69  C          0.35447120       0.76007100       0.37717700
    70  C          0.64552880       0.26007100       0.12282300
    71  C          0.64552880       0.23992900       0.62282300
    72  C          0.35447120       0.73992900       0.87717700
    73  N          0.36076110       0.66447900       0.41729600
    74  N          0.63923890       0.16447900       0.08270400
    75  N          0.63923890       0.33552100       0.58270400
    76  N          0.36076110       0.83552100       0.91729600
    77  N          0.31647120       0.85492900       0.41032600
    78  N          0.68352880       0.35492900       0.08967400
    79  N          0.68352880       0.14507100       0.58967400
    80  N          0.31647120       0.64507100       0.91032600
    81  O          0.34777100       0.56333700       0.51890500
    82  O          0.65222900       0.06333700       0.98109500
    83  O          0.65222900       0.43666300       0.48109500
    84  O          0.34777100       0.93666300       0.01890500
    85  O          0.24212110       0.95451800       0.50251500
    86  O          0.75787890       0.45451800      -0.00251500
    87  O          0.75787890       0.04548200       0.49748500
    88  O          0.24212110       0.54548200       0.00251500
    89  S          0.38884400       0.75953300       0.29127200
    90  S          0.61115600       0.25953300       0.20872800
    91  S          0.61115600       0.24046700       0.70872800
    92  S          0.38884400       0.74046700       0.79127200
    93  H          0.38171700       0.60311600       0.39789000
    94  H          0.61828300       0.10311600       0.10211000
    95  H          0.61828300       0.39688400       0.60211000
    96  H          0.38171700       0.89688400       0.89789000
    97  H          0.31551700       0.91481600       0.38759000
    98  H          0.68448300       0.41481600       0.11241000
    99  H          0.68448300       0.08518400       0.61241000
   100  H          0.31551700       0.58518400       0.88759000
   101  C          0.61457120       0.64011100       0.62653600
   102  C          0.38542880       0.14011100       0.87346400
   103  C          0.38542880       0.35988900       0.37346400
   104  C          0.61457120       0.85988900       0.12653600
   105  C          0.63003130       0.73925110       0.66634700
   106  C          0.36996870       0.23925110       0.83365300
   107  C          0.36996870       0.26074890       0.33365300
   108  C          0.63003130       0.76074890       0.16634700
   109  H          0.61669300       0.73776000       0.71486800
   110  H          0.38330700       0.23776000       0.78513200
   111  H          0.38330700       0.26224000       0.28513200
   112  H          0.61669300       0.76224000       0.21486800
   113  C          0.66522120       0.84104100       0.63475600
   114  C          0.33477880       0.34104100       0.86524400
   115  C          0.33477880       0.15895900       0.36524400
   116  C          0.66522120       0.65895900       0.13475600
   117  C          0.67200120       0.74249100       0.52119700
   118  C          0.32799880       0.24249100       0.97880300
   119  C          0.32799880       0.25750900       0.47880300
   120  C          0.67200120       0.75750900       0.02119700
   121  N          0.63867110       0.64672900       0.55452600
   122  N          0.36132890       0.14672900       0.94547400
   123  N          0.36132890       0.35327100       0.44547400
   124  N          0.63867110       0.85327100       0.05452600
   125  N          0.68108100       0.83762900       0.56164500
   126  N          0.31891900       0.33762900       0.93835500
   127  N          0.31891900       0.16237100       0.43835500
   128  N          0.68108100       0.66237100       0.06164500
   129  O          0.58352900       0.54342700       0.64981500
   130  O          0.41647100       0.04342700       0.85018500
   131  O          0.41647100       0.45657300       0.35018500
   132  O          0.58352900       0.95657300       0.14981500
   133  O          0.68447100       0.93552700       0.66536500
   134  O          0.31552900       0.43552700       0.83463500
   135  O          0.31552900       0.06447300       0.33463500
   136  O          0.68447100       0.56447300       0.16536500
   137  S          0.70337500       0.74540300       0.43495200
   138  S          0.29662500       0.24540300       0.06504800
   139  S          0.29662500       0.25459700       0.56504800
   140  S          0.70337500       0.75459700       0.93495200
   141  H          0.63231600       0.58901500       0.53149000
   142  H          0.36768400       0.08901500       0.96851000
   143  H          0.36768400       0.41098500       0.46851000
   144  H          0.63231600       0.91098500       0.03149000
   145  H          0.70451800       0.89751600       0.54181000
   146  H          0.29548200       0.39751600       0.95819000
   147  H          0.29548200       0.10248400       0.45819000
   148  H          0.70451800       0.60248400       0.04181000
   149  C          0.09887180       0.87557140       0.66409100
   150  C          0.90112820       0.37557140       0.83590900
   151  C          0.90112820       0.12442860       0.33590900
   152  C          0.09887180       0.62442860       0.16409100
   153  H          0.05787400       0.88451300       0.70873500
   154  H          0.94212600       0.38451300       0.79126500
   155  H          0.94212600       0.11548700       0.29126500
   156  H          0.05787400       0.61548700       0.20873500
   157  H          0.17347900       0.82715700       0.67310500
   158  H          0.82652100       0.32715700       0.82689500
   159  H          0.82652100       0.17284300       0.32689500
   160  H          0.17347900       0.67284300       0.17310500
   161  C          0.00652000       0.81772000       0.61064160
   162  C         -0.00652000       0.31772000       0.88935840
   163  C         -0.00652000       0.18228000       0.38935840
   164  C          0.00652000       0.68228000       0.11064160
   165  H          0.92645100       0.85835300       0.60758400
   166  H          0.07354900       0.35835300       0.89241600
   167  H          0.07354900       0.14164700       0.39241600
   168  H          0.92645100       0.64164700       0.10758400
   169  H         -0.00792400       0.74080300       0.62563300
   170  H          0.00792400       0.24080300       0.87436700
   171  H          0.00792400       0.25919700       0.37436700
   172  H         -0.00792400       0.75919700       0.12563300
   173  H          0.04203100       0.81716500       0.56468500
   174  H          0.95796900       0.31716500       0.93531500
   175  H          0.95796900       0.18283500       0.43531500
   176  H          0.04203100       0.68283500       0.06468500
   177  C          0.03556160       0.07594160       0.63049100
   178  C          0.96443840       0.57594160       0.86950900
   179  C          0.96443840       0.92405840       0.36950900
   180  C          0.03556160       0.42405840       0.13049100
   181  H          0.96850000       0.04541400       0.59778400
   182  H          0.03150000       0.54541400       0.90221600
   183  H          0.03150000       0.95458600       0.40221600
   184  H          0.96850000       0.45458600       0.09778400
   185  H          0.06871200       0.14417900       0.60901600
   186  H          0.93128800       0.64417900       0.89098400
   187  H          0.93128800       0.85582100       0.39098400
   188  H          0.06871200       0.35582100       0.10901600
   189  C          0.97778000       0.10791190       0.69924120
   190  C          0.02222000       0.60791190       0.80075880
   191  C          0.02222000       0.89208810       0.30075880
   192  C          0.97778000       0.39208810       0.19924120
   193  H          0.93517100       0.04288400       0.71786200
   194  H          0.06482900       0.54288400       0.78213800
   195  H          0.06482900       0.95711600       0.28213800
   196  H          0.93517100       0.45711600       0.21786200
   197  H          0.91684900       0.16836800       0.69044300
   198  H          0.08315100       0.66836800       0.80955700
   199  H          0.08315100       0.83163200       0.30955700
   200  H          0.91684900       0.33163200       0.19044300
   201  H          0.04445700       0.13287200       0.73324200
   202  H          0.95554300       0.63287200       0.76675800
   203  H          0.95554300       0.86712800       0.26675800
   204  H          0.04445700       0.36712800       0.23324200
   205  C          0.25371150       0.03310150       0.68732800
   206  C          0.74628850       0.53310150       0.81267200
   207  C          0.74628850       0.96689850       0.31267200
   208  C          0.25371150       0.46689850       0.18732800
   209  H          0.25508200       0.11569300       0.68555800
   210  H          0.74491800       0.61569300       0.81444200
   211  H          0.74491800       0.88430700       0.31444200
   212  H          0.25508200       0.38430700       0.18555800
   213  H          0.24178200       0.01062400       0.73620000
   214  H          0.75821800       0.51062400       0.76380000
   215  H          0.75821800      -0.01062400       0.26380000
   216  H          0.24178200       0.48937600       0.23620000
   217  C          0.37915160      -0.01169840       0.66572900
   218  C          0.62084840       0.48830160       0.83427100
   219  C          0.62084840       0.01169840       0.33427100
   220  C          0.37915160       0.51169840       0.16572900
   221  H          0.38136200       0.90707400       0.67174000
   222  H          0.61863800       0.40707400       0.82826000
   223  H          0.61863800       0.09292600       0.32826000
   224  H          0.38136200       0.59292600       0.17174000
   225  H          0.44765400       0.02225500       0.69495300
   226  H          0.55234600       0.52225500       0.80504700
   227  H          0.55234600       0.97774500       0.30504700
   228  H          0.44765400       0.47774500       0.19495300
   229  H          0.38926200       0.00670600       0.61654300
   230  H          0.61073800       0.50670600       0.88345700
   231  H          0.61073800      -0.00670600       0.38345700
   232  H          0.38926200       0.49329400       0.11654300
   233  N          0.14199110      -0.01018890       0.63968600
   234  N          0.85800890       0.48981110       0.86031400
   235  N          0.85800890       0.01018890       0.36031400
   236  N          0.14199110       0.51018890       0.13968600
   237  H          0.17220000       0.98291700       0.59451200
   238  H          0.82780000       0.48291700       0.90548800
   239  H          0.82780000       0.01708300       0.40548800
   240  H          0.17220000       0.51708300       0.09451200
