data_MUPNUH
_symmetry_space_group_name_H-M    'P1'
_symmetry_Int_Tables_number       1
loop_
_symmetry_equiv_pos_site_id
_symmetry_equiv_pos_as_xyz
1 x,y,z
_cell_length_a                   17.4481
_cell_length_b                   3.70954
_cell_length_c                   20.1344
_cell_angle_alpha                90.0
_cell_angle_beta                 96.5675
_cell_angle_gamma                90.0
loop_
_atom_site_label
_atom_site_type_symbol
_atom_site_fract_x
_atom_site_fract_y
_atom_site_fract_z
     1  C          0.79580110       0.20145000       0.66800100
     2  C          0.70419890       0.70145000       0.83199900
     3  C          0.20419890       0.79855000       0.33199900
     4  C          0.29580110       0.29855000       0.16800100
     5  C          0.82404110       0.08535000       0.60379100
     6  C          0.67595890       0.58535000       0.89620900
     7  C          0.17595890       0.91465000       0.39620900
     8  C          0.32404110       0.41465000       0.10379100
     9  C          0.78264110       0.13445000       0.54135100
    10  C          0.71735890       0.63445000       0.95864900
    11  C          0.21735890       0.86555000       0.45864900
    12  C          0.28264110       0.36555000       0.04135100
    13  H          0.73280000       0.24050000       0.53730000
    14  H          0.76720000       0.74050000       0.96270000
    15  H          0.26720000       0.75950000       0.46270000
    16  H          0.23280000       0.25950000       0.03730000
    17  C          0.81528110       0.02635000       0.48524100
    18  C          0.68471890       0.52635000       0.01475900
    19  C          0.18471890      -0.02635000       0.51475900
    20  C          0.31528110       0.47365000       0.98524100
    21  H          0.78660000       0.05940000       0.44270000
    22  H          0.71340000       0.55940000       0.05730000
    23  H          0.21340000       0.94060000       0.55730000
    24  H          0.28660000       0.44060000       0.94270000
    25  C          0.92484110       0.82734000       0.54813100
    26  C          0.57515890       0.32734000       0.95186900
    27  C          0.07515890       0.17266000       0.45186900
    28  C          0.42484110       0.67266000       0.04813100
    29  H          0.97440000       0.71900000       0.55070000
    30  H          0.52560000       0.21900000       0.94930000
    31  H          0.02560000       0.28100000       0.44930000
    32  H          0.47440000       0.78100000       0.05070000
    33  C          0.89660110       0.92675000       0.60678100
    34  C          0.60339890       0.42675000       0.89321900
    35  C          0.10339890       0.07325000       0.39321900
    36  C          0.39660110       0.57325000       0.10678100
    37  H          0.92640000       0.88740000       0.64870000
    38  H          0.57360000       0.38740000       0.85130000
    39  H          0.07360000       0.11260000       0.35130000
    40  H          0.42640000       0.61260000       0.14870000
    41  N          0.88550900       0.87695000       0.48797800
    42  N          0.61449100       0.37695000       0.01202200
    43  N          0.11449100       0.12305000       0.51202200
    44  N          0.38550900       0.62305000       0.98797800
    45  N          0.72654100       0.35035000       0.66462100
    46  N          0.77345900       0.85035000       0.83537900
    47  N          0.27345900       0.64965000       0.33537900
    48  N          0.22654100       0.14965000       0.16462100
    49  H          0.69491400       0.36670000       0.62781300
    50  H          0.80508600       0.86670000       0.87218700
    51  H          0.30508600       0.63330000       0.37218700
    52  H          0.19491400       0.13330000       0.12781300
    53  H          0.70821400       0.41970000       0.70011400
    54  H          0.79178600       0.91970000       0.79988600
    55  H          0.29178600       0.58030000       0.29988600
    56  H          0.20821400       0.08030000       0.20011400
    57  O          0.83735700       0.15704000       0.72169600
    58  O          0.66264300       0.65704000       0.77830400
    59  O          0.16264300       0.84296000       0.27830400
    60  O          0.33735700       0.34296000       0.22169600
    61  O          0.56729800       0.18574000       0.12718700
    62  O          0.93270200       0.68574000       0.37281300
    63  O          0.43270200       0.81426000       0.87281300
    64  O          0.06729800       0.31426000       0.62718700
    65  H          0.58540000       0.23380000       0.09130000
    66  H          0.91460000       0.73380000       0.40870000
    67  H          0.41460000       0.76620000       0.90870000
    68  H          0.08540000       0.26620000       0.59130000
    69  O          0.68548800       0.95646000       0.15432700
    70  O          0.81451200       0.45646000       0.34567300
    71  O          0.31451200       0.04354000       0.84567300
    72  O          0.18548800       0.54354000       0.65432700
    73  O          0.67955800       0.60506000       0.39926700
    74  O          0.82044200       0.10506000       0.10073300
    75  O          0.32044200       0.39494000       0.60073300
    76  O          0.17955800       0.89494000       0.89926700
    77  H          0.72190000       0.55630000       0.38530000
    78  H          0.77810000       0.05630000       0.11470000
    79  H          0.27810000       0.44370000       0.61470000
    80  H          0.22190000       0.94370000       0.88530000
    81  O          0.53601800       0.79966000       0.42653700
    82  O          0.96398200       0.29966000       0.07346300
    83  O          0.46398200       0.20034000       0.57346300
    84  O          0.03601800       0.70034000       0.92653700
    85  H          0.57390000       0.72390000       0.45230000
    86  H          0.92610000       0.22390000       0.04770000
    87  H          0.42610000       0.27610000       0.54770000
    88  H          0.07390000       0.77610000       0.95230000
    89  O          0.43055700       0.04964000       0.33100700
    90  O          0.06944300       0.54964000       0.16899300
    91  O          0.56944300       0.95036000       0.66899300
    92  O          0.93055700       0.45036000       0.83100700
    93  H          0.40140000       0.10910000       0.29670000
    94  H          0.09860000       0.60910000       0.20330000
    95  H          0.59860000       0.89090000       0.70330000
    96  H          0.90140000       0.39090000       0.79670000
    97  C          0.62108110       0.02805000       0.16913100
    98  C          0.87891890       0.52805000       0.33086900
    99  C          0.37891890      -0.02805000       0.83086900
   100  C          0.12108110       0.47195000       0.66913100
   101  C          0.59704110       0.95195000       0.23574100
   102  C          0.90295890       0.45195000       0.26425900
   103  C          0.40295890       0.04805000       0.76425900
   104  C          0.09704110       0.54805000       0.73574100
   105  C          0.52273110       0.03375000       0.25011100
   106  C          0.97726890       0.53375000       0.24988900
   107  C          0.47726890      -0.03375000       0.74988900
   108  C          0.02273110       0.46625000       0.75011100
   109  H          0.48580000       0.12970000       0.21640000
   110  H          0.01420000       0.62970000       0.28360000
   111  H          0.51420000       0.87030000       0.78360000
   112  H          0.98580000       0.37030000       0.71640000
   113  C          0.50305110      -0.02585000       0.31375100
   114  C         -0.00305110       0.47415000       0.18624900
   115  C          0.49694890       0.02585000       0.68624900
   116  C          0.00305110       0.52585000       0.81375100
   117  C          0.55688110       0.83815000       0.36373100
   118  C          0.94311890       0.33815000       0.13626900
   119  C          0.44311890       0.16185000       0.63626900
   120  C          0.05688110       0.66185000       0.86373100
   121  C          0.63051110       0.74744000       0.34838900
   122  C          0.86948890       0.24744000       0.15161100
   123  C          0.36948890       0.25256000       0.65161100
   124  C          0.13051110       0.75256000       0.84838900
   125  C          0.65050110       0.80574000       0.28463100
   126  C          0.84949890       0.30574000       0.21536900
   127  C          0.34949890       0.19426000       0.71536900
   128  C          0.15050110       0.69426000       0.78463100
   129  H          0.70080000       0.74570000       0.27440000
   130  H          0.79920000       0.24570000       0.22560000
   131  H          0.29920000       0.25430000       0.72560000
   132  H          0.20080000       0.75430000       0.77440000
   133  O          0.89549900       0.05415000       0.94723800
   134  O          0.60450100       0.55415000       0.55276200
   135  O          0.10450100       0.94585000       0.05276200
   136  O          0.39549900       0.44585000       0.44723800
   137  H          0.90751600       0.20590000       0.92171500
   138  H          0.59248400       0.70590000       0.57828500
   139  H          0.09248400       0.79410000       0.07828500
   140  H          0.40751600       0.29410000       0.42171500
   141  H          0.93341800       0.89110000       0.94581500
   142  H          0.56658200       0.39110000       0.55418500
   143  H          0.06658200       0.10890000       0.05418500
   144  H          0.43341800       0.60890000       0.44581500
