data_MURANT01
_symmetry_space_group_name_H-M    'P1'
_symmetry_Int_Tables_number       1
loop_
_symmetry_equiv_pos_site_id
_symmetry_equiv_pos_as_xyz
1 x,y,z
_cell_length_a                   8.17323
_cell_length_b                   6.34834
_cell_length_c                   11.30235
_cell_angle_alpha                90.0
_cell_angle_beta                 90.0
_cell_angle_gamma                90.0
loop_
_atom_site_label
_atom_site_type_symbol
_atom_site_fract_x
_atom_site_fract_y
_atom_site_fract_z
     1  O          0.31432120       0.25000000       0.54895900
     2  O          0.18567880       0.75000000       0.04895900
     3  O          0.68567880       0.75000000       0.45104100
     4  O          0.81432120       0.25000000       0.95104100
     5  H          0.38830000       0.25000000       0.48741700
     6  H          0.11170000       0.75000000       0.98741700
     7  H          0.61170000       0.75000000       0.51258300
     8  H          0.88830000       0.25000000       0.01258300
     9  N          0.04597150       0.25000000       0.58622100
    10  N          0.45402850       0.75000000       0.08622100
    11  N          0.95402850       0.75000000       0.41377900
    12  N          0.54597150       0.25000000       0.91377900
    13  H          0.94770000       0.25000000       0.55971900
    14  H          0.55230000       0.75000000       0.05971900
    15  H          0.05230000       0.75000000       0.44028100
    16  H          0.44770000       0.25000000       0.94028100
    17  N          0.13414170       0.25000000       0.39384100
    18  N          0.36585830       0.75000000       0.89384100
    19  N          0.86585830       0.75000000       0.60615900
    20  N          0.63414170       0.25000000       0.10615900
    21  H          0.03330000       0.25000000       0.37111800
    22  H          0.46670000       0.75000000       0.87111800
    23  H          0.96670000       0.75000000       0.62888200
    24  H          0.53330000       0.25000000       0.12888200
    25  H          0.21620000       0.25000000       0.34761600
    26  H          0.28380000       0.75000000       0.84761600
    27  H          0.78380000       0.75000000       0.65238400
    28  H          0.71620000       0.25000000       0.15238400
    29  C          0.16531140       0.25000000       0.50830110
    30  C          0.33468860       0.75000000       0.00830110
    31  C          0.83468860       0.75000000       0.49169890
    32  C          0.66531140       0.25000000      -0.00830110
    33  C          0.07182000       0.25000000       0.71402130
    34  C          0.42818000       0.75000000       0.21402130
    35  C          0.92818000       0.75000000       0.28597870
    36  C          0.57182000       0.25000000       0.78597870
    37  O          0.52359120       0.25000000       0.37552100
    38  O          0.97640880       0.75000000       0.87552100
    39  O          0.47640880       0.75000000       0.62447900
    40  O          0.02359120       0.25000000       0.12447900
    41  O          0.69576140       0.25000000       0.52067100
    42  O          0.80423860       0.75000000       0.02067100
    43  O          0.30423860       0.75000000       0.47932900
    44  O          0.19576140       0.25000000       0.97932900
    45  O          0.78239140       0.25000000       0.34047900
    46  O          0.71760860       0.75000000       0.84047900
    47  O          0.21760860       0.75000000       0.65952100
    48  O          0.28239140       0.25000000       0.15952100
    49  N          0.66822130       0.25000000       0.41318100
    50  N          0.83177870       0.75000000       0.91318100
    51  N          0.33177870       0.75000000       0.58681900
    52  N          0.16822130       0.25000000       0.08681900
