data_MUVYOU
_symmetry_space_group_name_H-M    'P1'
_symmetry_Int_Tables_number       1
loop_
_symmetry_equiv_pos_site_id
_symmetry_equiv_pos_as_xyz
1 x,y,z
_cell_length_a                   11.59997
_cell_length_b                   12.89038
_cell_length_c                   17.22061
_cell_angle_alpha                69.0055
_cell_angle_beta                 75.3605
_cell_angle_gamma                84.3085
loop_
_atom_site_label
_atom_site_type_symbol
_atom_site_fract_x
_atom_site_fract_y
_atom_site_fract_z
     1  I          0.68380300       0.95975700       0.05595200
     2  I          0.31619700       0.04024300       0.94404800
     3  I          0.70222300       0.40537700       0.32328300
     4  I          0.29777700       0.59462300       0.67671700
     5  F          0.88953000       0.55657000       0.15772000
     6  F          0.11047000       0.44343000       0.84228000
     7  F          0.88343000       0.76737000       0.05712000
     8  F          0.11657000       0.23263000       0.94288000
     9  F          0.51413000       0.60258000       0.32662000
    10  F          0.48587000       0.39742000       0.67338000
    11  F          0.50553000       0.81078000       0.22462000
    12  F          0.49447000       0.18922000       0.77538000
    13  C          0.69375000       0.79576000       0.13793000
    14  C          0.30625000       0.20424000       0.86207000
    15  C          0.60315000       0.75006000       0.20754000
    16  C          0.39685000       0.24994000       0.79246000
    17  C          0.79064000       0.72746000       0.12293000
    18  C          0.20936000       0.27254000       0.87707000
    19  C          0.79235000       0.61826000       0.17664000
    20  C          0.20765000       0.38174000       0.82336000
    21  C          0.70205000       0.57246000       0.24504000
    22  C          0.29795000       0.42754000       0.75496000
    23  C          0.60665000       0.64096000       0.26004000
    24  C          0.39335000       0.35904000       0.73996000
    25  I          0.90727300       0.18348300       0.82490300
    26  I          0.09272700       0.81651700       0.17509700
    27  I          0.46619300       0.17351300       0.55252300
    28  I          0.53380700       0.82648700       0.44747700
    29  F          0.10203000       0.98888000       0.81792000
    30  F          0.89797000       0.01112000       0.18208000
    31  F          0.31263000       0.98488000       0.71362000
    32  F          0.68737000       0.01512000       0.28638000
    33  F          0.06693000       0.37182000       0.66902000
    34  F          0.93307000       0.62818000       0.33098000
    35  F          0.27833000       0.36882000       0.56702000
    36  F          0.72167000       0.63118000       0.43298000
    37  C          0.25225000       0.08274000       0.70184000
    38  C          0.74775000       0.91726000       0.29816000
    39  C          0.14404000       0.08354000       0.75613000
    40  C          0.85596000       0.91646000       0.24387000
    41  C          0.30144000       0.17654000       0.63613000
    42  C          0.69856000       0.82346000       0.36387000
    43  C          0.12575000       0.27364000       0.68214000
    44  C          0.87425000       0.72636000       0.31786000
    45  C          0.07654000       0.18054000       0.74623000
    46  C          0.92346000       0.81946000       0.25377000
    47  C          0.23545000       0.27314000       0.62814000
    48  C          0.76455000       0.72686000       0.37186000
    49  O          0.67493000       0.17963000       0.42673000
    50  O          0.32507000       0.82037000       0.57327000
    51  N          0.75924000       0.10333000       0.43093000
    52  N          0.24076000       0.89667000       0.56907000
    53  C          0.93494000       0.93834000       0.43713000
    54  C          0.06506000       0.06166000       0.56287000
    55  C          0.02784000       0.85004000       0.44153000
    56  C          0.97216000       0.14996000       0.55847000
    57  C          0.74685000       0.00604000       0.49544000
    58  C          0.25315000      -0.00604000       0.50456000
    59  H          0.67760000      -0.00680000       0.53870000
    60  H          0.32240000       0.00680000       0.46130000
    61  C          0.85995000       0.11934000       0.36964000
    62  C          0.14005000       0.88066000       0.63036000
    63  H          0.87100000       0.18670000       0.32440000
    64  H          0.12900000       0.81330000       0.67560000
    65  C          0.94695000       0.03954000       0.37154000
    66  C          0.05305000       0.96046000       0.62846000
    67  H          0.01570000       0.05380000       0.32760000
    68  H          0.98430000       0.94620000       0.67240000
    69  C          0.14035000       0.87195000       0.38844000
    70  C          0.85965000       0.12805000       0.61156000
    71  H          0.15750000       0.94290000       0.34860000
    72  H          0.84250000       0.05710000       0.65140000
    73  C          0.20446000       0.68695000       0.45105000
    74  C          0.79554000       0.31305000       0.54895000
    75  H          0.26450000       0.63320000       0.45530000
    76  H          0.73550000       0.36680000       0.54470000
    77  C          0.83175000       0.92554000       0.49974000
    78  C          0.16825000       0.07446000       0.50026000
    79  H          0.81980000       0.85970000       0.54640000
    80  H          0.18020000       0.14030000       0.45360000
    81  C          0.22705000       0.79115000       0.39314000
    82  C          0.77295000       0.20885000       0.60686000
    83  H          0.30200000       0.80770000       0.35620000
    84  H          0.69800000       0.19230000       0.64380000
    85  C          0.00575000       0.74155000       0.49834000
    86  C         -0.00575000       0.25845000       0.50166000
    87  H          0.93040000       0.72270000       0.53400000
    88  H          0.06960000       0.27730000       0.46600000
    89  C          0.09487000       0.66195000       0.50205000
    90  C          0.90513000       0.33805000       0.49795000
    91  H          0.07880000       0.58990000       0.54040000
    92  H          0.92120000       0.41010000       0.45960000
    93  O          0.67303000       0.17003000       0.92903000
    94  O          0.32697000       0.82997000       0.07097000
    95  N          0.59824000       0.25263000       0.93063000
    96  N          0.40176000       0.74737000       0.06937000
    97  C          0.44054000       0.43024000       0.93383000
    98  C          0.55946000       0.56976000       0.06617000
    99  C          0.35753000       0.52533000       0.93893000
   100  C          0.64247000       0.47467000       0.06107000
   101  C          0.38703000       0.63133000       0.88022000
   102  C          0.61297000       0.36867000       0.11978000
   103  H          0.45590000       0.64200000       0.83670000
   104  H          0.54410000       0.35800000       0.16330000
   105  C          0.31344000       0.72122000       0.88663000
   106  C          0.68656000       0.27878000       0.11337000
   107  H          0.33310000       0.79210000       0.84740000
   108  H          0.66690000       0.20790000       0.15260000
   109  C          0.21054000       0.70523000       0.95173000
   110  C          0.78946000       0.29477000       0.04827000
   111  H          0.16130000       0.76540000       0.95600000
   112  H          0.83870000       0.23460000       0.04400000
   113  C          0.18104000       0.59934000       0.01043000
   114  C          0.81896000       0.40066000       0.98957000
   115  H          0.11210000       0.58860000       0.05400000
   116  H          0.88790000       0.41140000       0.94600000
   117  C          0.25464000       0.50933000       0.00403000
   118  C          0.74536000       0.49067000      -0.00403000
   119  H          0.23490000       0.43840000       0.04330000
   120  H          0.76510000       0.56160000       0.95670000
   121  C          0.49965000       0.24024000      -0.00846000
   122  C          0.50035000       0.75976000       0.00846000
   123  H          0.48300000       0.17070000       0.03370000
   124  H          0.51700000       0.82930000       0.96630000
   125  C          0.42105000       0.32574000      -0.00526000
   126  C          0.57895000       0.67426000       0.00526000
   127  H          0.35280000       0.31300000       0.03900000
   128  H          0.64720000       0.68700000       0.96100000
   129  C          0.54105000       0.43875000       0.87024000
   130  C          0.45895000       0.56125000       0.12976000
   131  H          0.55760000       0.50650000       0.82590000
   132  H          0.44240000       0.49350000       0.17410000
   133  C          0.61766000       0.35205000       0.86914000
   134  C          0.38234000       0.64795000       0.13086000
   135  H          0.68510000       0.36230000       0.82450000
   136  H          0.31490000       0.63770000       0.17550000
   137  C          0.23884000       0.20943000       0.22373000
   138  C          0.76116000       0.79057000       0.77627000
   139  C          0.15354000       0.29583000       0.22333000
   140  C          0.84646000       0.70417000       0.77667000
   141  C          0.18714000       0.35803000       0.26993000
   142  C          0.81286000       0.64197000       0.73007000
   143  C          0.32404000       0.21303000       0.26883000
   144  C          0.67596000       0.78697000       0.73117000
   145  C          0.29094000       0.30834000       0.29853000
   146  C          0.70906000       0.69166000       0.70147000
   147  C          0.23774000       0.13184000       0.18543000
   148  C          0.76226000       0.86816000       0.81457000
   149  C          0.41324000       0.13464000       0.27423000
   150  C          0.58676000       0.86536000       0.72577000
   151  H          0.47150000       0.13410000       0.30280000
   152  H          0.52850000       0.86590000       0.69720000
   153  C          0.41495000       0.05524000       0.23584000
   154  C          0.58505000       0.94476000       0.76416000
   155  H          0.47550000       0.00190000       0.23990000
   156  H          0.52450000      -0.00190000       0.76010000
   157  C          0.14635000       0.14284000       0.14314000
   158  C          0.85365000       0.85716000       0.85686000
   159  H          0.14220000       0.09340000       0.11560000
   160  H          0.85780000       0.90660000       0.88440000
   161  C          0.34235000       0.35044000       0.34524000
   162  C          0.65765000       0.64956000       0.65476000
   163  H          0.41000000       0.31760000       0.36410000
   164  H          0.59000000       0.68240000       0.63590000
   165  C          0.06525000       0.30434000       0.18204000
   166  C          0.93475000       0.69566000       0.81796000
   167  H          0.00780000       0.36030000       0.18020000
   168  H         -0.00780000       0.63970000       0.81980000
   169  C          0.33345000       0.05194000       0.19324000
   170  C          0.66655000       0.94806000       0.80676000
   171  H          0.33920000      -0.00250000       0.16870000
   172  H          0.66080000       0.00250000       0.83130000
   173  C          0.06255000       0.22664000       0.14224000
   174  C          0.93745000       0.77336000       0.85776000
   175  H          0.00200000       0.23210000       0.11420000
   176  H         -0.00200000       0.76790000       0.88580000
   177  C          0.13715000       0.45114000       0.28884000
   178  C          0.86285000       0.54886000       0.71116000
   179  H          0.06930000       0.48490000       0.27060000
   180  H          0.93070000       0.51510000       0.72940000
   181  C          0.28936000       0.44345000       0.36304000
   182  C          0.71064000       0.55655000       0.63696000
   183  H          0.32210000       0.47280000       0.39460000
   184  H          0.67790000       0.52720000       0.60540000
   185  C          0.18986000       0.49294000       0.33504000
   186  C          0.81014000       0.50706000       0.66496000
   187  H          0.15720000       0.55570000       0.34740000
   188  H          0.84280000       0.44430000       0.65260000
