data_MUYSEF
_symmetry_space_group_name_H-M    'P1'
_symmetry_Int_Tables_number       1
loop_
_symmetry_equiv_pos_site_id
_symmetry_equiv_pos_as_xyz
1 x,y,z
_cell_length_a                   17.99114
_cell_length_b                   3.77281
_cell_length_c                   19.68205
_cell_angle_alpha                90.0
_cell_angle_beta                 99.439211
_cell_angle_gamma                90.0
loop_
_atom_site_label
_atom_site_type_symbol
_atom_site_fract_x
_atom_site_fract_y
_atom_site_fract_z
     1  F          0.26230500       0.73173000       0.30059500
     2  F          0.73769500       0.23173000       0.19940500
     3  F          0.73769500       0.26827000       0.69940500
     4  F          0.26230500       0.76827000       0.80059500
     5  N          0.33619800       0.18134000       0.52891700
     6  N          0.66380200       0.68134000       0.97108300
     7  N          0.66380200       0.81866000       0.47108300
     8  N          0.33619800       0.31866000       0.02891700
     9  F          0.37526600       0.91553000       0.23442500
    10  F          0.62473400       0.41553000       0.26557500
    11  F          0.62473400       0.08447000       0.76557500
    12  F          0.37526600       0.58447000       0.73442500
    13  C          0.27401900       0.26075000       0.48410800
    14  C          0.72598100       0.76075000       0.01589200
    15  C          0.72598100       0.73925000       0.51589200
    16  C          0.27401900       0.23925000       0.98410800
    17  C          0.20017900       0.18905000       0.49851800
    18  C          0.79982100       0.68905000       0.00148200
    19  C          0.79982100       0.81095000       0.50148200
    20  C          0.20017900       0.31095000      -0.00148200
    21  C          0.19440100       0.02755000       0.56100800
    22  C          0.80559900       0.52755000       0.93899200
    23  C          0.80559900      -0.02755000       0.43899200
    24  C          0.19440100       0.47245000       0.06100800
    25  H          0.14620000      -0.02880000       0.57180000
    26  H          0.85380000       0.47120000       0.92820000
    27  H          0.85380000       0.02880000       0.42820000
    28  H          0.14620000       0.52880000       0.07180000
    29  C          0.25848100       0.94875000       0.60736900
    30  C          0.74151900       0.44875000       0.89263100
    31  C          0.74151900       0.05125000       0.39263100
    32  C          0.25848100       0.55125000       0.10736900
    33  H          0.25540000       0.84300000       0.65060000
    34  H          0.74460000       0.34300000       0.84940000
    35  H          0.74460000       0.15700000       0.34940000
    36  H          0.25540000       0.65700000       0.15060000
    37  C          0.32739900       0.02965000       0.58854900
    38  C          0.67260100       0.52965000       0.91145100
    39  C          0.67260100      -0.02965000       0.41145100
    40  C          0.32739900       0.47035000       0.08854900
    41  H          0.37160000      -0.02670000       0.62020000
    42  H          0.62840000       0.47330000       0.87980000
    43  H          0.62840000       0.02670000       0.37980000
    44  H          0.37160000       0.52670000       0.12020000
    45  N          0.28239700       0.41584000       0.42272700
    46  N          0.71760300       0.91584000       0.07727300
    47  N          0.71760300       0.58416000       0.57727300
    48  N          0.28239700       0.08416000       0.92272700
    49  H          0.23980000       0.47100000       0.39600000
    50  H          0.76020000      -0.02900000       0.10400000
    51  H          0.76020000       0.52900000       0.60400000
    52  H          0.23980000       0.02900000       0.89600000
    53  C          0.34704900       0.50095000       0.39543800
    54  C          0.65295100       0.00095000       0.10456200
    55  C          0.65295100       0.49905000       0.60456200
    56  C          0.34704900      -0.00095000       0.89543800
    57  C          0.33430900       0.66385000       0.33071800
    58  C          0.66569100       0.16385000       0.16928200
    59  C          0.66569100       0.33615000       0.66928200
    60  C          0.33430900       0.83615000       0.83071800
    61  C          0.39244100       0.75655000       0.29698800
    62  C          0.60755900       0.25655000       0.20301200
    63  C          0.60755900       0.24345000       0.70301200
    64  C          0.39244100       0.74345000       0.79698800
    65  C          0.46633900       0.69255000       0.32549900
    66  C          0.53366100       0.19255000       0.17450100
    67  C          0.53366100       0.30745000       0.67450100
    68  C          0.46633900       0.80745000       0.82549900
    69  H          0.50650000       0.75620000       0.30210000
    70  H          0.49350000       0.25620000       0.19790000
    71  H          0.49350000       0.24380000       0.69790000
    72  H          0.50650000       0.74380000       0.80210000
    73  C          0.47979900       0.53165000       0.38963900
    74  C          0.52020100       0.03165000       0.11036100
    75  C          0.52020100       0.46835000       0.61036100
    76  C          0.47979900      -0.03165000       0.88963900
    77  H          0.53040000       0.48530000       0.41030000
    78  H          0.46960000      -0.01470000       0.08970000
    79  H          0.46960000       0.51470000       0.58970000
    80  H          0.53040000       0.01470000       0.91030000
    81  C          0.42192900       0.43595000       0.42469900
    82  C          0.57807100       0.93595000       0.07530100
    83  C          0.57807100       0.56405000       0.57530100
    84  C          0.42192900       0.06405000       0.92469900
    85  H          0.43320000       0.32610000       0.46860000
    86  H          0.56680000       0.82610000       0.03140000
    87  H          0.56680000       0.67390000       0.53140000
    88  H          0.43320000       0.17390000       0.96860000
    89  C          0.13150900       0.28505000       0.45108800
    90  C          0.86849100       0.78505000       0.04891200
    91  C          0.86849100       0.71495000       0.54891200
    92  C          0.13150900       0.21495000       0.95108800
    93  O          0.06816600       0.18334000       0.47039600
    94  O          0.93183400       0.68334000       0.02960400
    95  O          0.93183400       0.81666000       0.52960400
    96  O          0.06816600       0.31666000       0.97039600
    97  H          0.03150000       0.25250000       0.44140000
    98  H          0.96850000       0.75250000       0.05860000
    99  H          0.96850000       0.74750000       0.55860000
   100  H          0.03150000       0.24750000       0.94140000
   101  O          0.13229600       0.45314000       0.39693600
   102  O          0.86770400       0.95314000       0.10306400
   103  O          0.86770400       0.54686000       0.60306400
   104  O          0.13229600       0.04686000       0.89693600
   105  C          0.11794900       0.19265000       0.21733900
   106  C          0.88205100       0.69265000       0.28266100
   107  C          0.88205100       0.80735000       0.78266100
   108  C          0.11794900       0.30735000       0.71733900
   109  H          0.16290000       0.10380000       0.20070000
   110  H          0.83710000       0.60380000       0.29930000
   111  H          0.83710000       0.89620000       0.79930000
   112  H          0.16290000       0.39620000       0.70070000
   113  H          0.11550000       0.09110000       0.26280000
   114  H          0.88450000       0.59110000       0.23720000
   115  H          0.88450000       0.90890000       0.73720000
   116  H          0.11550000       0.40890000       0.76280000
   117  H          0.12050000       0.45160000       0.22090000
   118  H          0.87950000       0.95160000       0.27910000
   119  H          0.87950000       0.54840000       0.77910000
   120  H          0.12050000       0.04840000       0.72090000
   121  C          0.04916900       0.08805000       0.16802900
   122  C          0.95083100       0.58805000       0.33197100
   123  C          0.95083100       0.91195000       0.83197100
   124  C          0.04916900       0.41195000       0.66802900
   125  O          0.98604400       0.22114000       0.18328600
   126  O          0.01395600       0.72114000       0.31671400
   127  O          0.01395600       0.77886000       0.81671400
   128  O          0.98604400       0.27886000       0.68328600
   129  H          0.94940000       0.14980000       0.15450000
   130  H          0.05060000       0.64980000       0.34550000
   131  H          0.05060000       0.85020000       0.84550000
   132  H          0.94940000       0.35020000       0.65450000
   133  O          0.05103600       0.89656000       0.11835600
   134  O          0.94896400       0.39656000       0.38164400
   135  O          0.94896400       0.10344000       0.88164400
   136  O          0.05103600       0.60344000       0.61835600
