data_MUZLUR
_symmetry_space_group_name_H-M    'P1'
_symmetry_Int_Tables_number       1
loop_
_symmetry_equiv_pos_site_id
_symmetry_equiv_pos_as_xyz
1 x,y,z
_cell_length_a                   10.51963
_cell_length_b                   12.50204
_cell_length_c                   21.53625
_cell_angle_alpha                90.0
_cell_angle_beta                 90.0
_cell_angle_gamma                90.0
loop_
_atom_site_label
_atom_site_type_symbol
_atom_site_fract_x
_atom_site_fract_y
_atom_site_fract_z
     1  I          0.40775500       0.62933400       0.58872200
     2  I          0.09224500       0.37066600       0.08872200
     3  I          0.59224500       0.12933400       0.91127800
     4  I          0.90775500       0.87066600       0.41127800
     5  I          0.59224500       0.37066600       0.41127800
     6  I          0.90775500       0.62933400       0.91127800
     7  I          0.40775500       0.87066600       0.08872200
     8  I          0.09224500       0.12933400       0.58872200
     9  I          0.58854600       0.79043400       0.62320300
    10  I          0.91145400       0.20956600       0.12320300
    11  I          0.41145400       0.29043400       0.87679700
    12  I          0.08854600       0.70956600       0.37679700
    13  I          0.41145400       0.20956600       0.37679700
    14  I          0.08854600       0.79043400       0.87679700
    15  I          0.58854600       0.70956600       0.12320300
    16  I          0.91145400       0.29043400       0.62320300
    17  I          0.22288600       0.45991500       0.55514300
    18  I          0.27711400       0.54008500       0.05514300
    19  I          0.77711400       0.95991500       0.94485700
    20  I          0.72288600       0.04008500       0.44485700
    21  I          0.77711400       0.54008500       0.44485700
    22  I          0.72288600       0.45991500       0.94485700
    23  I          0.22288600       0.04008500       0.05514300
    24  I          0.27711400       0.95991500       0.55514300
    25  I          0.69860500       0.47157400       0.73975200
    26  I          0.80139500       0.52842600       0.23975200
    27  I          0.30139500       0.97157400       0.76024800
    28  I          0.19860500       0.02842600       0.26024800
    29  I          0.30139500       0.52842600       0.26024800
    30  I          0.19860500       0.47157400       0.76024800
    31  I          0.69860500       0.02842600       0.23975200
    32  I          0.80139500       0.97157400       0.73975200
    33  N          0.54097000       0.08905000       0.66463000
    34  N          0.95903000       0.91095000       0.16463000
    35  N          0.45903000       0.58905000       0.83537000
    36  N          0.04097000       0.41095000       0.33537000
    37  N          0.45903000       0.91095000       0.33537000
    38  N          0.04097000       0.08905000       0.83537000
    39  N          0.54097000       0.41095000       0.16463000
    40  N          0.95903000       0.58905000       0.66463000
    41  N          0.45918000       0.34406000       0.65193000
    42  N          0.04082000       0.65594000       0.15193000
    43  N          0.54082000       0.84406000       0.84807000
    44  N          0.95918000       0.15594000       0.34807000
    45  N          0.54082000       0.65594000       0.34807000
    46  N          0.95918000       0.34406000       0.84807000
    47  N          0.45918000       0.15594000       0.15193000
    48  N          0.04082000       0.84406000       0.65193000
    49  C          0.58259000       0.11507000       0.59943000
    50  C          0.91741000       0.88493000       0.09943000
    51  C          0.41741000       0.61507000       0.90057000
    52  C          0.08259000       0.38493000       0.40057000
    53  C          0.41741000       0.88493000       0.40057000
    54  C          0.08259000       0.11507000       0.90057000
    55  C          0.58259000       0.38493000       0.09943000
    56  C          0.91741000       0.61507000       0.59943000
    57  H          0.57430000       0.05130000       0.57400000
    58  H          0.92570000       0.94870000       0.07400000
    59  H          0.42570000       0.55130000       0.92600000
    60  H          0.07430000       0.44870000       0.42600000
    61  H          0.42570000       0.94870000       0.42600000
    62  H          0.07430000       0.05130000       0.92600000
    63  H          0.57430000       0.44870000       0.07400000
    64  H          0.92570000       0.55130000       0.57400000
    65  H          0.67170000       0.13480000       0.60010000
    66  H          0.82830000       0.86520000       0.10010000
    67  H          0.32830000       0.63480000       0.89990000
    68  H          0.17170000       0.36520000       0.39990000
    69  H          0.32830000       0.86520000       0.39990000
    70  H          0.17170000       0.13480000       0.89990000
    71  H          0.67170000       0.36520000       0.10010000
    72  H          0.82830000       0.63480000       0.60010000
    73  C          0.53569000       0.17937000       0.70823000
    74  C          0.96431000       0.82063000       0.20823000
    75  C          0.46431000       0.67937000       0.79177000
    76  C          0.03569000       0.32063000       0.29177000
    77  C          0.46431000       0.82063000       0.29177000
    78  C          0.03569000       0.17937000       0.79177000
    79  C          0.53569000       0.32063000       0.20823000
    80  C          0.96431000       0.67937000       0.70823000
    81  H          0.61490000       0.21860000       0.70590000
    82  H          0.88510000       0.78140000       0.20590000
    83  H          0.38510000       0.71860000       0.79410000
    84  H          0.11490000       0.28140000       0.29410000
    85  H          0.38510000       0.78140000       0.29410000
    86  H          0.11490000       0.21860000       0.79410000
    87  H          0.61490000       0.28140000       0.20590000
    88  H          0.88510000       0.71860000       0.70590000
    89  H          0.52750000       0.15170000       0.75010000
    90  H          0.97250000       0.84830000       0.25010000
    91  H          0.47250000       0.65170000       0.74990000
    92  H          0.02750000       0.34830000       0.24990000
    93  H          0.47250000       0.84830000       0.24990000
    94  H          0.02750000       0.15170000       0.74990000
    95  H          0.52750000       0.34830000       0.25010000
    96  H          0.97250000       0.65170000       0.75010000
    97  C          0.42639000       0.25577000       0.69564000
    98  C          0.07361000       0.74423000       0.19564000
    99  C          0.57361000       0.75577000       0.80436000
   100  C          0.92639000       0.24423000       0.30436000
   101  C          0.57361000       0.74423000       0.30436000
   102  C          0.92639000       0.25577000       0.80436000
   103  C          0.42639000       0.24423000       0.19564000
   104  C          0.07361000       0.75577000       0.69564000
   105  H          0.35560000       0.21550000       0.67850000
   106  H          0.14440000       0.78450000       0.17850000
   107  H          0.64440000       0.71550000       0.82150000
   108  H          0.85560000       0.28450000       0.32150000
   109  H          0.64440000       0.78450000       0.32150000
   110  H          0.85560000       0.21550000       0.82150000
   111  H          0.35560000       0.28450000       0.17850000
   112  H          0.14440000       0.71550000       0.67850000
   113  H          0.39850000       0.28650000       0.73460000
   114  H          0.10150000       0.71350000       0.23460000
   115  H          0.60150000       0.78650000       0.76540000
   116  H          0.89850000       0.21350000       0.26540000
   117  H          0.60150000       0.71350000       0.26540000
   118  H          0.89850000       0.28650000       0.76540000
   119  H          0.39850000       0.21350000       0.23460000
   120  H          0.10150000       0.78650000       0.73460000
   121  C          0.53339000       0.31557000       0.59454000
   122  C          0.96661000       0.68443000       0.09454000
   123  C          0.46661000       0.81557000       0.90546000
   124  C          0.03339000       0.18443000       0.40546000
   125  C          0.46661000       0.68443000       0.40546000
   126  C          0.03339000       0.31557000       0.90546000
   127  C          0.53339000       0.18443000       0.09454000
   128  C          0.96661000       0.81557000       0.59454000
   129  H          0.62320000       0.32130000       0.60380000
   130  H          0.87680000       0.67870000       0.10380000
   131  H          0.37680000       0.82130000       0.89620000
   132  H          0.12320000       0.17870000       0.39620000
   133  H          0.37680000       0.67870000       0.39620000
   134  H          0.12320000       0.32130000       0.89620000
   135  H          0.62320000       0.17870000       0.10380000
   136  H          0.87680000       0.82130000       0.60380000
   137  H          0.51390000       0.36720000       0.56230000
   138  H          0.98610000       0.63280000       0.06230000
   139  H          0.48610000       0.86720000       0.93770000
   140  H          0.01390000       0.13280000       0.43770000
   141  H          0.48610000       0.63280000       0.43770000
   142  H          0.01390000       0.36720000       0.93770000
   143  H          0.51390000       0.13280000       0.06230000
   144  H          0.98610000       0.86720000       0.56230000
   145  C          0.50721000       0.20496000       0.56963000
   146  C         -0.00721000       0.79504000       0.06963000
   147  C          0.49279000       0.70496000       0.93037000
   148  C          0.00721000       0.29504000       0.43037000
   149  C          0.49279000       0.79504000       0.43037000
   150  C          0.00721000       0.20496000       0.93037000
   151  C          0.50721000       0.29504000       0.06963000
   152  C         -0.00721000       0.70496000       0.56963000
   153  H          0.52490000       0.20480000       0.52540000
   154  H          0.97510000       0.79520000       0.02540000
   155  H          0.47510000       0.70480000       0.97460000
   156  H          0.02490000       0.29520000       0.47460000
   157  H          0.47510000       0.79520000       0.47460000
   158  H          0.02490000       0.20480000       0.97460000
   159  H          0.52490000       0.29520000       0.02540000
   160  H          0.97510000       0.70480000       0.52540000
   161  H          0.41740000       0.18970000       0.57480000
   162  H          0.08260000       0.81030000       0.07480000
   163  H          0.58260000       0.68970000       0.92520000
   164  H          0.91740000       0.31030000       0.42520000
   165  H          0.58260000       0.81030000       0.42520000
   166  H          0.91740000       0.18970000       0.92520000
   167  H          0.41740000       0.31030000       0.07480000
   168  H          0.08260000       0.68970000       0.57480000
   169  H          0.52690000       0.39470000       0.67440000
   170  H          0.97310000       0.60530000       0.17440000
   171  H          0.47310000       0.89470000       0.82560000
   172  H          0.02690000       0.10530000       0.32560000
   173  H          0.47310000       0.60530000       0.32560000
   174  H          0.02690000       0.39470000       0.82560000
   175  H          0.52690000       0.10530000       0.17440000
   176  H          0.97310000       0.89470000       0.67440000
   177  H          0.36200000       0.36012000       0.63390000
   178  H          0.13800000       0.63988000       0.13390000
   179  H          0.63800000       0.86012000       0.86610000
   180  H          0.86200000       0.13988000       0.36610000
   181  H          0.63800000       0.63988000       0.36610000
   182  H          0.86200000       0.36012000       0.86610000
   183  H          0.36200000       0.13988000       0.13390000
   184  H          0.13800000       0.86012000       0.63390000
   185  H          0.44710000       0.04770000       0.66040000
   186  H          0.05290000       0.95230000       0.16040000
   187  H          0.55290000       0.54770000       0.83960000
   188  H          0.94710000       0.45230000       0.33960000
   189  H          0.55290000       0.95230000       0.33960000
   190  H          0.94710000       0.04770000       0.83960000
   191  H          0.44710000       0.45230000       0.16040000
   192  H          0.05290000       0.54770000       0.66040000
   193  H          0.61712000       0.04390000       0.68460000
   194  H          0.88288000       0.95610000       0.18460000
   195  H          0.38288000       0.54390000       0.81540000
   196  H          0.11712000       0.45610000       0.31540000
   197  H          0.38288000       0.95610000       0.31540000
   198  H          0.11712000       0.04390000       0.81540000
   199  H          0.61712000       0.45610000       0.18460000
   200  H          0.88288000       0.54390000       0.68460000
