data_NABCEZ
_symmetry_space_group_name_H-M    'P1'
_symmetry_Int_Tables_number       1
loop_
_symmetry_equiv_pos_site_id
_symmetry_equiv_pos_as_xyz
1 x,y,z
_cell_length_a                   5.547511
_cell_length_b                   8.590217
_cell_length_c                   22.2325
_cell_angle_alpha                90.0
_cell_angle_beta                 98.523
_cell_angle_gamma                90.0
loop_
_atom_site_label
_atom_site_type_symbol
_atom_site_fract_x
_atom_site_fract_y
_atom_site_fract_z
     1  O          0.54546000       0.23923000       0.07076100
     2  O          0.45454000       0.73923000       0.42923900
     3  O          0.45454000       0.76077000       0.92923900
     4  O          0.54546000       0.26077000       0.57076100
     5  O          0.66566000       0.15353000       0.98657900
     6  O          0.33434000       0.65353000       0.51342100
     7  O          0.33434000       0.84647000       0.01342100
     8  O          0.66566000       0.34647000       0.48657900
     9  C          0.10475000      -0.00354000       0.18298140
    10  C          0.89525000       0.49646000       0.31701860
    11  C          0.89525000       0.00354000       0.81701860
    12  C          0.10475000       0.50354000       0.68298140
    13  C          0.10695000       0.00914000       0.24503150
    14  C          0.89305000       0.50914000       0.25496850
    15  C          0.89305000      -0.00914000       0.75496850
    16  C          0.10695000       0.49086000       0.74503150
    17  H         -0.01400000       0.06680000       0.25970000
    18  H          0.01400000       0.56680000       0.24030000
    19  H          0.01400000       0.93320000       0.74030000
    20  H         -0.01400000       0.43320000       0.75970000
    21  C          0.28596000       0.93736000       0.28591160
    22  C          0.71404000       0.43736000       0.21408840
    23  C          0.71404000       0.06264000       0.71408840
    24  C          0.28596000       0.56264000       0.78591160
    25  H          0.28380000       0.94800000       0.32750000
    26  H          0.71620000       0.44800000       0.17250000
    27  H          0.71620000       0.05200000       0.67250000
    28  H          0.28380000       0.55200000       0.82750000
    29  C          0.46496000       0.85166000       0.26565170
    30  C          0.53504000       0.35166000       0.23434830
    31  C          0.53504000       0.14834000       0.73434830
    32  C          0.46496000       0.64834000       0.76565170
    33  H          0.58380000       0.80270000       0.29300000
    34  H          0.41620000       0.30270000       0.20700000
    35  H          0.41620000       0.19730000       0.70700000
    36  H          0.58380000       0.69730000       0.79300000
    37  C          0.46626000       0.83916000       0.20451170
    38  C          0.53374000       0.33916000       0.29548830
    39  C          0.53374000       0.16084000       0.79548830
    40  C          0.46626000       0.66084000       0.70451170
    41  H          0.58860000       0.78190000       0.19030000
    42  H          0.41140000       0.28190000       0.30970000
    43  H          0.41140000       0.21810000       0.80970000
    44  H          0.58860000       0.71810000       0.69030000
    45  C          0.28835000       0.91026000       0.16315160
    46  C          0.71165000       0.41026000       0.33684840
    47  C          0.71165000       0.08974000       0.83684840
    48  C          0.28835000       0.58974000       0.66315160
    49  H          0.29270000       0.89980000       0.12170000
    50  H          0.70730000       0.39980000       0.37830000
    51  H          0.70730000       0.10020000       0.87830000
    52  H          0.29270000       0.60020000       0.62170000
    53  C          0.91495000       0.07424000       0.14079160
    54  C          0.08505000       0.57424000       0.35920840
    55  C          0.08505000       0.92576000       0.85920840
    56  C          0.91495000       0.42576000       0.64079160
    57  H          0.80020000       0.13010000       0.15860000
    58  H          0.19980000       0.63010000       0.34140000
    59  H          0.19980000       0.86990000       0.84140000
    60  H          0.80020000       0.36990000       0.65860000
    61  C          0.88575000       0.07534000       0.08089150
    62  C          0.11425000       0.57534000       0.41910850
    63  C          0.11425000       0.92466000       0.91910850
    64  C          0.88575000       0.42466000       0.58089150
    65  H         -0.00290000       0.01920000       0.06200000
    66  H          0.00290000       0.51920000       0.43800000
    67  H          0.00290000       0.98080000       0.93800000
    68  H         -0.00290000       0.48080000       0.56200000
    69  C          0.69285000       0.15754000       0.04193160
    70  C          0.30715000       0.65754000       0.45806840
    71  C          0.30715000       0.84246000       0.95806840
    72  C          0.69285000       0.34246000       0.54193160
    73  H          0.41650000       0.29440000       0.04241500
    74  H          0.58350000       0.79440000       0.45758500
    75  H          0.58350000       0.70560000       0.95758500
    76  H          0.41650000       0.20560000       0.54241500
    77  O          0.72384000       0.68733000       0.07236100
    78  O          0.27616000       0.18733000       0.42763900
    79  O          0.27616000       0.31267000       0.92763900
    80  O          0.72384000       0.81267000       0.57236100
    81  H          0.60330000       0.74320000       0.06480000
    82  H          0.39670000       0.24320000       0.43520000
    83  H          0.39670000       0.25680000       0.93520000
    84  H          0.60330000       0.75680000       0.56480000
    85  N          0.77914000       0.62283000       0.01898120
    86  N          0.22086000       0.12283000       0.48101880
    87  N          0.22086000       0.37717000       0.98101880
    88  N          0.77914000       0.87717000       0.51898120
    89  C          0.12205000       0.50805000       0.08828140
    90  C          0.87795000       0.00805000       0.41171860
    91  C          0.87795000       0.49195000       0.91171860
    92  C          0.12205000      -0.00805000       0.58828140
    93  H          0.05310000       0.56260000       0.11940000
    94  H          0.94690000       0.06260000       0.38060000
    95  H          0.94690000       0.43740000       0.88060000
    96  H          0.05310000       0.93740000       0.61940000
    97  H          0.28460000       0.54480000       0.08720000
    98  H          0.71540000       0.04480000       0.41280000
    99  H          0.71540000       0.45520000       0.91280000
   100  H          0.28460000       0.95520000       0.58720000
   101  H          0.12630000       0.39850000       0.09690000
   102  H          0.87370000       0.89850000       0.40310000
   103  H          0.87370000       0.60150000       0.90310000
   104  H          0.12630000       0.10150000       0.59690000
   105  C          0.96905000       0.53634000       0.02791130
   106  C          0.03095000       0.03634000       0.47208870
   107  C          0.03095000       0.46366000       0.97208870
   108  C          0.96905000       0.96366000       0.52791130
