data_NAFXEA
_symmetry_space_group_name_H-M    'P1'
_symmetry_Int_Tables_number       1
loop_
_symmetry_equiv_pos_site_id
_symmetry_equiv_pos_as_xyz
1 x,y,z
_cell_length_a                   11.97265
_cell_length_b                   9.27694
_cell_length_c                   11.58125
_cell_angle_alpha                90.0
_cell_angle_beta                 112.3722
_cell_angle_gamma                90.0
loop_
_atom_site_label
_atom_site_type_symbol
_atom_site_fract_x
_atom_site_fract_y
_atom_site_fract_z
     1  I          0.30805200       0.60095200       0.44486200
     2  I          0.69194800       0.10095200       0.05513800
     3  I          0.69194800       0.39904800       0.55513800
     4  I          0.30805200       0.89904800       0.94486200
     5  F          0.30636130       0.37871170       0.65556140
     6  F          0.69363870       0.87871170       0.84443860
     7  F          0.69363870       0.62128830       0.34443860
     8  F          0.30636130       0.12128830       0.15556140
     9  C          0.17489190       0.46192000       0.45852000
    10  C          0.82510810       0.96192000       0.04148000
    11  C          0.82510810       0.53808000       0.54148000
    12  C          0.17489190       0.03808000       0.95852000
    13  F          0.14221190       0.19332000       0.67152000
    14  F          0.85778810       0.69332000       0.82848000
    15  F          0.85778810       0.80668000       0.32848000
    16  F          0.14221190       0.30668000       0.17152000
    17  F          0.92113820       0.17672000       0.48393000
    18  F          0.07886180       0.67672000       0.01607000
    19  F          0.07886180       0.82328000       0.51607000
    20  F          0.92113820       0.32328000       0.98393000
    21  F          0.02943160       0.54022000       0.26588140
    22  F          0.97056840       0.04022000       0.23411860
    23  F          0.97056840       0.45978000       0.73411860
    24  F          0.02943160       0.95978000       0.76588140
    25  F          0.86442840       0.35513000       0.28342000
    26  F          0.13557160       0.85513000       0.21658000
    27  F          0.13557160       0.64487000       0.71658000
    28  F          0.86442840       0.14487000       0.78342000
    29  C          0.19862000       0.37293000       0.56082000
    30  C          0.80138000       0.87293000       0.93918000
    31  C          0.80138000       0.62707000       0.43918000
    32  C          0.19862000       0.12707000       0.06082000
    33  C          0.11553000       0.27753000       0.57033000
    34  C          0.88447000       0.77753000       0.92967000
    35  C          0.88447000       0.72247000       0.42967000
    36  C          0.11553000       0.22247000       0.07033000
    37  C          0.00263000       0.26983000       0.47463000
    38  C         -0.00263000       0.76983000       0.02537000
    39  C         -0.00263000       0.73017000       0.52537000
    40  C          0.00263000       0.23017000       0.97463000
    41  C          0.97508000       0.35843000       0.37353000
    42  C          0.02492000       0.85843000       0.12647000
    43  C          0.02492000       0.64157000       0.62647000
    44  C          0.97508000       0.14157000       0.87353000
    45  C          0.06032000       0.45303000       0.36592000
    46  C          0.93968000       0.95303000       0.13408000
    47  C          0.93968000       0.54697000       0.63408000
    48  C          0.06032000       0.04697000       0.86592000
    49  H          0.59830000       0.17730000       0.74930000
    50  H          0.40170000       0.67730000       0.75070000
    51  H          0.40170000       0.82270000       0.25070000
    52  H          0.59830000       0.32270000       0.24930000
    53  C          0.52742000       0.15433000       0.67852000
    54  C          0.47258000       0.65433000       0.82148000
    55  C          0.47258000       0.84567000       0.32148000
    56  C          0.52742000       0.34567000       0.17852000
    57  N          0.51249190       0.21862000       0.57076190
    58  N          0.48750810       0.71862000       0.92923810
    59  N          0.48750810       0.78138000       0.42923810
    60  N          0.51249190       0.28138000       0.07076190
    61  C          0.44733000       0.05593000       0.69193000
    62  C          0.55267000       0.55593000       0.80807000
    63  C          0.55267000       0.94407000       0.30807000
    64  C          0.44733000       0.44407000       0.19193000
    65  H          0.45730000       0.01040000       0.77230000
    66  H          0.54270000       0.51040000       0.72770000
    67  H          0.54270000      -0.01040000       0.22770000
    68  H          0.45730000       0.48960000       0.27230000
    69  C          0.34663000       0.02173000       0.58833000
    70  C          0.65337000       0.52173000       0.91167000
    71  C          0.65337000       0.97827000       0.41167000
    72  C          0.34663000       0.47827000       0.08833000
    73  H          0.28840000       0.95560000       0.59840000
    74  H          0.71160000       0.45560000       0.90160000
    75  H          0.71160000       0.04440000       0.40160000
    76  H          0.28840000       0.54440000       0.09840000
    77  C          0.33063000       0.08714000       0.47683000
    78  C          0.66937000       0.58714000       0.02317000
    79  C          0.66937000       0.91286000       0.52317000
    80  C          0.33063000       0.41286000       0.97683000
    81  H          0.26930000       0.06840000       0.40630000
    82  H          0.73070000       0.56840000       0.09370000
    83  H          0.73070000       0.93160000       0.59370000
    84  H          0.26930000       0.43160000       0.90630000
    85  H          0.40330000       0.23130000       0.39730000
    86  H          0.59670000       0.73130000       0.10270000
    87  H          0.59670000       0.76870000       0.60270000
    88  H          0.40330000       0.26870000       0.89730000
    89  C          0.41523000       0.18423000       0.47173000
    90  C          0.58477000       0.68423000       0.02827000
    91  C          0.58477000       0.81577000       0.52827000
    92  C          0.41523000       0.31577000       0.97173000
