data_NAHSAT
_symmetry_space_group_name_H-M    'P1'
_symmetry_Int_Tables_number       1
loop_
_symmetry_equiv_pos_site_id
_symmetry_equiv_pos_as_xyz
1 x,y,z
_cell_length_a                   9.46293
_cell_length_b                   10.13063
_cell_length_c                   11.08173
_cell_angle_alpha                90.0
_cell_angle_beta                 105.595211
_cell_angle_gamma                90.0
loop_
_atom_site_label
_atom_site_type_symbol
_atom_site_fract_x
_atom_site_fract_y
_atom_site_fract_z
     1  I          0.85078200       0.97307085       0.62533200
     2  I          0.35078200       0.02692915       0.12533200
     3  I          0.18689814      -0.00935615       0.42441013
     4  I          0.68689814       0.00935615       0.92441013
     5  I          0.53646118       0.50543514       0.49931016
     6  I          0.03646118       0.49456486      -0.00068984
     7  C          0.65603000       0.08702000       0.56702000
     8  C          0.15603000       0.91298000       0.06702000
     9  C          0.51743000       0.02562000       0.52773000
    10  C          0.01743000       0.97438000       0.02773000
    11  C          0.38772000       0.09402000       0.48142000
    12  C          0.88772000       0.90598000       0.98142000
    13  C          0.39813000       0.23012000       0.47182000
    14  C          0.89813000       0.76988000       0.97182000
    15  C          0.52953000       0.29952000       0.51332000
    16  C          0.02953000       0.70048000       0.01332000
    17  C          0.65533000       0.22412000       0.56272000
    18  C          0.15533000       0.77588000       0.06272000
    19  O          0.49002000       0.83238000       0.62832000
    20  O         -0.00998000       0.16762000       0.12832000
    21  O          0.53492000       0.81808000       0.44632000
    22  O          0.03492000       0.18192000       0.94632000
    23  O          0.17922000       0.32753000       0.47622000
    24  O          0.67922000       0.67247000       0.97622000
    25  O          0.24532000       0.33552000       0.30322000
    26  O          0.74532000       0.66448000       0.80322000
    27  O          0.88612000       0.28653000       0.55252000
    28  O          0.38612000       0.71347000       0.05252000
    29  O          0.81723000       0.34663000       0.71442000
    30  O          0.31723000       0.65337000       0.21442000
    31  N          0.51462000       0.88038000       0.53492000
    32  N          0.01462000       0.11962000       0.03492000
    33  N          0.26312000       0.30412000       0.41252000
    34  N          0.76312000       0.69588000       0.91252000
    35  N          0.79662000       0.29242000       0.61332000
    36  N          0.29662000       0.70758000       0.11332000
    37  C          0.03663000       0.69223000       0.33683000
    38  C          0.53663000       0.30777000       0.83683000
    39  H          0.14080000       0.69290000       0.35920000
    40  H          0.64080000       0.30710000       0.85920000
    41  C          0.96523000       0.57262000       0.30262000
    42  C          0.46523000       0.42738000       0.80262000
    43  H          0.01990000       0.49410000       0.30180000
    44  H          0.51990000       0.50590000       0.80180000
    45  C          0.81252000       0.56942000       0.26962000
    46  C          0.31252000       0.43058000       0.76962000
    47  C          0.73853000       0.68822000       0.27343000
    48  C          0.23853000       0.31178000       0.77343000
    49  H          0.63430000       0.69020000       0.25270000
    50  H          0.13430000       0.30980000       0.75270000
    51  C          0.81913000       0.80293000       0.30773000
    52  C          0.31913000       0.19707000       0.80773000
    53  H          0.76740000       0.88310000       0.30870000
    54  H          0.26740000       0.11690000       0.80870000
    55  C          0.73053000       0.44433000       0.23332000
    56  C          0.23053000       0.55567000       0.73332000
    57  C          0.58393000       0.44452000       0.16253000
    58  C          0.08393000       0.55548000       0.66253000
    59  H          0.53690000       0.52480000       0.13050000
    60  H          0.03690000       0.47520000       0.63050000
    61  C          0.50833000       0.32653000       0.13953000
    62  C          0.00833000       0.67347000       0.63953000
    63  H          0.40860000       0.32860000       0.09170000
    64  H          0.90860000       0.67140000       0.59170000
    65  C          0.70883000       0.20833000       0.24433000
    66  C          0.20883000       0.79167000       0.74433000
    67  H          0.75370000       0.12570000       0.27160000
    68  H          0.25370000       0.87430000       0.77160000
    69  C          0.79403000       0.32223000       0.27263000
    70  C          0.29403000       0.67777000       0.77263000
    71  H          0.89440000       0.31660000       0.31810000
    72  H          0.39440000       0.68340000       0.81810000
    73  N          0.96682000       0.80662000       0.33992000
    74  N          0.46682000       0.19338000       0.83992000
    75  N          0.56723000       0.20952000       0.18082000
    76  N          0.06723000       0.79048000       0.68082000
