data_NAHSUN
_symmetry_space_group_name_H-M    'P1'
_symmetry_Int_Tables_number       1
loop_
_symmetry_equiv_pos_site_id
_symmetry_equiv_pos_as_xyz
1 x,y,z
_cell_length_a                   8.24463
_cell_length_b                   10.41433
_cell_length_c                   12.72388
_cell_angle_alpha                67.0496
_cell_angle_beta                 74.6866
_cell_angle_gamma                78.6086
loop_
_atom_site_label
_atom_site_type_symbol
_atom_site_fract_x
_atom_site_fract_y
_atom_site_fract_z
     1  I          0.24913500       0.22867300       0.50548300
     2  I          0.75086500       0.77132700       0.49451700
     3  I          0.50883500       0.67847400       0.04411300
     4  I          0.49116500       0.32152600       0.95588700
     5  I          0.23947500       0.82106300       0.48484300
     6  I          0.76052500       0.17893700       0.51515700
     7  O          0.30746000       0.35755000       0.19293000
     8  O          0.69254000       0.64245000       0.80707000
     9  O          0.56137000       0.31505000       0.22704000
    10  O          0.43863000       0.68495000       0.77296000
    11  O          0.26297000       0.93685000       0.16664000
    12  O          0.73703000       0.06315000       0.83336000
    13  O          0.51907000       0.90255000       0.19534000
    14  O          0.48093000       0.09745000       0.80466000
    15  O          0.05205000       0.49835000       0.62023000
    16  O          0.94795000       0.50165000       0.37977000
    17  O          0.30906000       0.45325000       0.64883000
    18  O          0.69094000       0.54675000       0.35117000
    19  N          0.41767000       0.37585000       0.23144000
    20  N          0.58233000       0.62415000       0.76856000
    21  N          0.38218000       0.86485000       0.20734000
    22  N          0.61782000       0.13515000       0.79266000
    23  N          0.20377000       0.49255000       0.58714000
    24  N          0.79623000       0.50745000       0.41286000
    25  C          0.27297000       0.53715000       0.45944000
    26  C          0.72703000       0.46285000       0.54056000
    27  C          0.30807000       0.43616000       0.40834000
    28  C          0.69193000       0.56384000       0.59166000
    29  C          0.37428000       0.48156000       0.28874000
    30  C          0.62572000       0.51844000       0.71126000
    31  C          0.40027000       0.61996000       0.22225000
    32  C          0.59973000       0.38004000       0.77775000
    33  C          0.36028000       0.71556000       0.27784000
    34  C          0.63972000       0.28444000       0.72216000
    35  C          0.29657000       0.67626000       0.39854000
    36  C          0.70343000       0.32374000       0.60146000
    37  O          0.15146000       0.97524000       0.61893000
    38  O          0.84854000       0.02476000       0.38107000
    39  N          0.11487000       0.91325000       0.73244000
    40  N          0.88513000       0.08675000       0.26756000
    41  C          0.01758000       0.80346000       0.78185000
    42  C          0.98242000       0.19654000       0.21815000
    43  H          0.97610000       0.77350000       0.73310000
    44  H          0.02390000       0.22650000       0.26690000
    45  C          0.97939000       0.73627000       0.90035000
    46  C          0.02061000       0.26373000       0.09965000
    47  H          0.91370000       0.65910000       0.93280000
    48  H          0.08630000       0.34090000       0.06720000
    49  C          0.03709000       0.78067000       0.97455000
    50  C          0.96291000       0.21933000       0.02545000
    51  C          0.13209000       0.89167000       0.92195000
    52  C          0.86791000       0.10833000       0.07805000
    53  H          0.17170000       0.92500000       0.96920000
    54  H          0.82830000       0.07500000       0.03080000
    55  C          0.17169000       0.95616000       0.80275000
    56  C          0.82831000       0.04384000       0.19725000
    57  H          0.23970000       0.03170000       0.76920000
    58  H          0.76030000       0.96830000       0.23080000
    59  C         -0.00671200       0.71049000       0.10415000
    60  C          0.00671200       0.28951000       0.89585000
    61  H          0.87030000       0.71120000       0.13010000
    62  H          0.12970000       0.28880000       0.86990000
    63  H          0.03500000       0.76070000       0.14100000
    64  H          0.96500000       0.23930000       0.85900000
    65  H          0.04610000       0.61330000       0.12630000
    66  H          0.95390000       0.38670000       0.87370000
