data_NAHTIC
_symmetry_space_group_name_H-M    'P1'
_symmetry_Int_Tables_number       1
loop_
_symmetry_equiv_pos_site_id
_symmetry_equiv_pos_as_xyz
1 x,y,z
_cell_length_a                   24.15656
_cell_length_b                   9.89023
_cell_length_c                   8.10812
_cell_angle_alpha                90.0
_cell_angle_beta                 103.05101
_cell_angle_gamma                90.0
loop_
_atom_site_label
_atom_site_type_symbol
_atom_site_fract_x
_atom_site_fract_y
_atom_site_fract_z
     1  I          0.37309630       0.52340380       0.22887710
     2  I          0.62690370       0.52340380       0.27112290
     3  I          0.87309630       0.02340380       0.22887710
     4  I          0.12690370       0.02340380       0.27112290
     5  I          0.62690370       0.47659620       0.77112290
     6  I          0.37309630       0.47659620       0.72887710
     7  I          0.12690370       0.97659620       0.77112290
     8  I          0.87309630       0.97659620       0.72887710
     9  I          0.50000000       0.05820712       0.25000000
    10  I         -0.00000000       0.55820712       0.25000000
    11  I          0.50000000       0.94179288       0.75000000
    12  I          0.00000000       0.44179288       0.75000000
    13  O          0.38054500       0.89378120       0.32136160
    14  O          0.61945500       0.89378120       0.17863840
    15  O          0.88054500       0.39378120       0.32136160
    16  O          0.11945500       0.39378120       0.17863840
    17  O          0.61945500       0.10621880       0.67863840
    18  O          0.38054500       0.10621880       0.82136160
    19  O          0.11945500       0.60621880       0.67863840
    20  O          0.88054500       0.60621880       0.82136160
    21  O          0.36897500       0.85550150       0.05114160
    22  O          0.63102500       0.85550150       0.44885840
    23  O          0.86897500       0.35550150       0.05114160
    24  O          0.13102500       0.35550150       0.44885840
    25  O          0.63102500       0.14449850       0.94885840
    26  O          0.36897500       0.14449850       0.55114160
    27  O          0.13102500       0.64449850       0.94885840
    28  O          0.86897500       0.64449850       0.55114160
    29  O          0.48815500       0.36103110       0.11287140
    30  O          0.51184500       0.36103110       0.38712860
    31  O          0.98815500       0.86103110       0.11287140
    32  O          0.01184500       0.86103110       0.38712860
    33  O          0.51184500       0.63896890       0.88712860
    34  O          0.48815500       0.63896890       0.61287140
    35  O          0.01184500       0.13896890       0.88712860
    36  O          0.98815500       0.13896890       0.61287140
    37  N          0.39532500       0.84732120       0.19829160
    38  N          0.60467500       0.84732120       0.30170840
    39  N          0.89532500       0.34732120       0.19829160
    40  N          0.10467500       0.34732120       0.30170840
    41  N          0.60467500       0.15267880       0.80170840
    42  N          0.39532500       0.15267880       0.69829160
    43  N          0.10467500       0.65267880       0.80170840
    44  N          0.89532500       0.65267880       0.69829160
    45  N          0.50000000       0.41811150       0.25000000
    46  N         -0.00000000       0.91811150       0.25000000
    47  N          0.50000000       0.58188850       0.75000000
    48  N         -0.00000000       0.08188850       0.75000000
    49  C          0.44827500       0.63315120       0.23173150
    50  C          0.55172500       0.63315120       0.26826850
    51  C          0.94827500       0.13315120       0.23173150
    52  C          0.05172500       0.13315120       0.26826850
    53  C          0.55172500       0.36684880       0.76826850
    54  C          0.44827500       0.36684880       0.73173150
    55  C          0.05172500       0.86684880       0.76826850
    56  C          0.94827500       0.86684880       0.73173150
    57  C          0.44982500       0.77371120       0.22830160
    58  C          0.55017500       0.77371120       0.27169840
    59  C          0.94982500       0.27371120       0.22830160
    60  C          0.05017500       0.27371120       0.27169840
    61  C          0.55017500       0.22628880       0.77169840
    62  C          0.44982500       0.22628880       0.72830160
    63  C          0.05017500       0.72628880       0.77169840
    64  C          0.94982500       0.72628880       0.72830160
    65  C          0.50000000       0.84762180       0.25000000
    66  C         -0.00000000       0.34762180       0.25000000
    67  C          0.50000000       0.15237820       0.75000000
    68  C          0.00000000       0.65237820       0.75000000
    69  C          0.50000000       0.56734160       0.25000000
    70  C         -0.00000000       0.06734160       0.25000000
    71  C          0.50000000       0.43265840       0.75000000
    72  C         -0.00000000       0.93265840       0.75000000
    73  S          0.27040114       0.32537300       0.19764400
    74  S          0.72959886       0.32537300       0.30235600
    75  S          0.77040114       0.82537300       0.19764400
    76  S          0.22959886       0.82537300       0.30235600
    77  S          0.72959886       0.67462700       0.80235600
    78  S          0.27040114       0.67462700       0.69764400
    79  S          0.22959886       0.17462700       0.80235600
    80  S          0.77040114       0.17462700       0.69764400
    81  C          0.30804600       0.19390140       0.11161190
    82  C          0.69195400       0.19390140       0.38838810
    83  C          0.80804600       0.69390140       0.11161190
    84  C          0.19195400       0.69390140       0.38838810
    85  C          0.69195400       0.80609860       0.88838810
    86  C          0.30804600       0.80609860       0.61161190
    87  C          0.19195400       0.30609860       0.88838810
    88  C          0.80804600       0.30609860       0.61161190
    89  H          0.33350000       0.23630000       0.04630000
    90  H          0.66650000       0.23630000       0.45370000
    91  H          0.83350000       0.73630000       0.04630000
    92  H          0.16650000       0.73630000       0.45370000
    93  H          0.66650000       0.76370000       0.95370000
    94  H          0.33350000       0.76370000       0.54630000
    95  H          0.16650000       0.26370000       0.95370000
    96  H          0.83350000       0.26370000       0.54630000
    97  H          0.33200000       0.14240000       0.20600000
    98  H          0.66800000       0.14240000       0.29400000
    99  H          0.83200000       0.64240000       0.20600000
   100  H          0.16800000       0.64240000       0.29400000
   101  H          0.66800000       0.85760000       0.79400000
   102  H          0.33200000       0.85760000       0.70600000
   103  H          0.16800000       0.35760000       0.79400000
   104  H          0.83200000       0.35760000       0.70600000
   105  C          0.23207600       0.40313140       0.00282190
   106  C          0.76792400       0.40313140       0.49717810
   107  C          0.73207600       0.90313140       0.00282190
   108  C          0.26792400       0.90313140       0.49717810
   109  C          0.76792400       0.59686860      -0.00282190
   110  C          0.23207600       0.59686860       0.50282190
   111  C          0.26792400       0.09686860      -0.00282190
   112  C          0.73207600       0.09686860       0.50282190
   113  H          0.20990000       0.48050000       0.03090000
   114  H          0.79010000       0.48050000       0.46910000
   115  H          0.70990000       0.98050000       0.03090000
   116  H          0.29010000       0.98050000       0.46910000
   117  H          0.79010000       0.51950000       0.96910000
   118  H          0.20990000       0.51950000       0.53090000
   119  H          0.29010000       0.01950000       0.96910000
   120  H          0.70990000       0.01950000       0.53090000
   121  H          0.25980000       0.43880000       0.94050000
   122  H          0.74020000       0.43880000       0.55950000
   123  H          0.75980000       0.93880000       0.94050000
   124  H          0.24020000       0.93880000       0.55950000
   125  H          0.74020000       0.56120000       0.05950000
   126  H          0.25980000       0.56120000       0.44050000
   127  H          0.24020000       0.06120000       0.05950000
   128  H          0.75980000       0.06120000       0.44050000
