data_NALWIG
_symmetry_space_group_name_H-M    'P1'
_symmetry_Int_Tables_number       1
loop_
_symmetry_equiv_pos_site_id
_symmetry_equiv_pos_as_xyz
1 x,y,z
_cell_length_a                   9.15366
_cell_length_b                   11.43958
_cell_length_c                   17.490512
_cell_angle_alpha                94.3161
_cell_angle_beta                 91.1291
_cell_angle_gamma                102.7641
loop_
_atom_site_label
_atom_site_type_symbol
_atom_site_fract_x
_atom_site_fract_y
_atom_site_fract_z
     1  S          0.68701900       0.22159800       0.00545500
     2  S          0.31298100       0.77840200      -0.00545500
     3  F          0.81562000       0.14972000       0.00824130
     4  F          0.18438000       0.85028000       0.99175870
     5  F          0.81062000       0.33562000       0.98668880
     6  F          0.18938000       0.66438000       0.01331120
     7  F          0.72262000       0.25962000       0.09485110
     8  F          0.27738000       0.74038000       0.90514890
     9  F          0.57532000       0.10392000       0.02586140
    10  F          0.42468000       0.89608000       0.97413860
    11  F          0.66342000       0.17952000       0.91690880
    12  F          0.33658000       0.82048000       0.08309120
    13  C          0.54624000       0.31073000       0.00112000
    14  C          0.45376000       0.68927000      -0.00112000
    15  C          0.38404000       0.24703000       0.00032000
    16  C          0.61596000       0.75297000      -0.00032000
    17  F          0.34632000       0.16432000       0.93961860
    18  F          0.65368000       0.83568000       0.06038140
    19  F          0.35042000       0.18692000       0.06467140
    20  F          0.64958000       0.81308000       0.93532860
    21  S          0.26247900       0.35455900      -0.00200500
    22  S          0.73752100       0.64544100       0.00200500
    23  O          0.30583000       0.41652000       0.93004860
    24  O          0.69417000       0.58348000       0.06995140
    25  O          0.11333000       0.27893000      -0.00662000
    26  O          0.88667000       0.72107000       0.00662000
    27  O          0.30343000       0.42913000       0.06926150
    28  O          0.69657000       0.57087000       0.93073850
    29  H          0.56100000       0.35160000       0.95560000
    30  H          0.43900000       0.64840000       0.04440000
    31  H          0.56400000       0.36760000       0.04460000
    32  H          0.43600000       0.63240000       0.95540000
    33  S          0.83041900       0.12943800       0.45970500
    34  S          0.16958100       0.87056200       0.54029500
    35  S          0.61793900       0.89504200       0.46093500
    36  S          0.38206100       0.10495800       0.53906500
    37  S          0.96692100       0.08876800       0.62760500
    38  S          0.03307900       0.91123200       0.37239500
    39  S          0.76330900       0.84982200       0.62040500
    40  S          0.23669100       0.15017800       0.37959500
    41  S          0.72968100       0.18471800       0.30916500
    42  S          0.27031900       0.81528200       0.69083500
    43  S          0.46176100       0.91194200       0.31470500
    44  S          0.53823900       0.08805800       0.68529500
    45  S          0.07921100       0.08285800       0.78711500
    46  S          0.92078900       0.91714200       0.21288500
    47  S          0.83075100       0.79820200       0.77746500
    48  S          0.16924900       0.20179800       0.22253500
    49  C          0.76604000       0.00103000       0.50792000
    50  C          0.23396000      -0.00103000       0.49208000
    51  C          0.82604000       0.98277000       0.57682000
    52  C          0.17396000       0.01723000       0.42318000
    53  C          0.70544000       0.08473000       0.38052000
    54  C          0.29456000       0.91527000       0.61948000
    55  C          0.60524000       0.97717000       0.38232000
    56  C          0.39476000       0.02283000       0.61768000
    57  C          0.96254000       0.00883000       0.70982000
    58  C          0.03746000      -0.00883000       0.29018000
    59  C          0.86744000       0.89917000       0.70672000
    60  C          0.13256000       0.10083000       0.29328000
    61  C          0.56104000       0.12813000       0.25002000
    62  C          0.43896000       0.87187000       0.74998000
    63  C          0.52454000      -0.00704000       0.23252000
    64  C          0.47546000       0.00704000       0.76748000
    65  C         -0.00466000      -0.00133000       0.86482000
    66  C          0.00466000       0.00133000       0.13518000
    67  C          0.97804000       0.86387000       0.84852000
    68  C          0.02196000       0.13613000       0.15148000
    69  H          0.57300000       0.16470000       0.20290000
    70  H          0.42700000       0.83530000       0.79710000
    71  H          0.47950000       0.14990000       0.27600000
    72  H          0.52050000       0.85010000       0.72400000
    73  H          0.44760000       0.97240000       0.19340000
    74  H          0.55240000       0.02760000       0.80660000
    75  H          0.61200000       0.96940000       0.21470000
    76  H          0.38800000       0.03060000       0.78530000
    77  H          0.89900000       0.01470000       0.87280000
    78  H          0.10100000       0.98530000       0.12720000
    79  H          0.05690000       0.02430000       0.91000000
    80  H          0.94310000       0.97570000       0.09000000
    81  H          0.07000000       0.84920000       0.83030000
    82  H          0.93000000       0.15080000       0.16970000
    83  H          0.95550000       0.82650000       0.89480000
    84  H          0.04450000       0.17350000       0.10520000
    85  S          0.95186900       0.58889800       0.62184500
    86  S          0.04813100       0.41110200       0.37815500
    87  S          0.75241900       0.34921800       0.61469500
    88  S          0.24758100       0.65078200       0.38530500
    89  S          0.81936900       0.62809800       0.45382500
    90  S          0.18063100       0.37190200       0.54617500
    91  S          0.60805900       0.39341800       0.45388500
    92  S          0.39194100       0.60658200       0.54611500
    93  S          0.07185900       0.58308800       0.77895500
    94  S          0.92814100       0.41691200       0.22104500
    95  S          0.83214100       0.29478800       0.76971500
    96  S          0.16785900       0.70521200       0.23028500
    97  S          0.70813100       0.69147800       0.30811500
    98  S          0.29186900       0.30852200       0.69188500
    99  S          0.44967100       0.41520800       0.30830500
   100  S          0.55032900       0.58479200       0.69169500
   101  C          0.81274000       0.48253000       0.57122000
   102  C          0.18726000       0.51747000       0.42878000
   103  C          0.75284000       0.50023000       0.50182000
   104  C          0.24716000       0.49977000       0.49818000
   105  C          0.95164000       0.50843000       0.70312000
   106  C          0.04836000       0.49157000       0.29688000
   107  C          0.85914000       0.39753000       0.69972000
   108  C          0.14086000       0.60247000       0.30028000
   109  C          0.68874000       0.58743000       0.37682000
   110  C          0.31126000       0.41257000       0.62318000
   111  C          0.59054000       0.48003000       0.37752000
   112  C          0.40946000       0.51997000       0.62248000
   113  C          0.00424000       0.49113000       0.85622000
   114  C         -0.00424000       0.50887000       0.14378000
   115  C         -0.00736000       0.35823000       0.83392000
   116  C          0.00736000       0.64177000       0.16608000
   117  C          0.56104000       0.62323000       0.23672000
   118  C          0.43896000       0.37677000       0.76328000
   119  C          0.53134000       0.48703000       0.22542000
   120  C          0.46866000       0.51297000       0.77458000
   121  H          0.90780000       0.50270000       0.86920000
   122  H          0.09220000       0.49730000       0.13080000
   123  H          0.07150000       0.51520000       0.89950000
   124  H          0.92850000       0.48480000       0.10050000
   125  H          0.08110000       0.34890000       0.80900000
   126  H          0.91890000       0.65110000       0.19100000
   127  H         -0.01680000       0.31620000       0.87900000
   128  H          0.01680000       0.68380000       0.12100000
   129  H          0.58880000       0.65460000       0.18900000
   130  H          0.41120000       0.34540000       0.81100000
   131  H          0.47090000       0.64470000       0.25210000
   132  H          0.52910000       0.35530000       0.74790000
   133  H          0.46430000       0.46030000       0.18220000
   134  H          0.53570000       0.53970000       0.81780000
   135  H          0.62350000       0.46420000       0.21600000
   136  H          0.37650000       0.53580000       0.78400000
