data_NAPSUU
_symmetry_space_group_name_H-M    'P1'
_symmetry_Int_Tables_number       1
loop_
_symmetry_equiv_pos_site_id
_symmetry_equiv_pos_as_xyz
1 x,y,z
_cell_length_a                   7.3012
_cell_length_b                   9.4462
_cell_length_c                   13.1923
_cell_angle_alpha                77.982
_cell_angle_beta                 84.942
_cell_angle_gamma                74.272
loop_
_atom_site_label
_atom_site_type_symbol
_atom_site_fract_x
_atom_site_fract_y
_atom_site_fract_z
     1  Cl         0.19073700       0.63941500       0.46443400
     2  Cl         0.80926300       0.36058500       0.53556600
     3  O          0.47184150       0.00820110       0.63328800
     4  O          0.52815850      -0.00820110       0.36671200
     5  C          0.41295180       0.14690150       0.60168100
     6  C          0.58704820       0.85309850       0.39831900
     7  C          0.36582000       0.25727180       0.66561120
     8  C          0.63418000       0.74272820       0.33438880
     9  H          0.38120000       0.22760000       0.73680000
    10  H          0.61880000       0.77240000       0.26320000
    11  C          0.29933000       0.40402180       0.62436130
    12  C          0.70067000       0.59597820       0.37563870
    13  H          0.26870000       0.47410000       0.66740000
    14  H          0.73130000       0.52590000       0.33260000
    15  C          0.27602000       0.45158160       0.51749120
    16  C          0.72398000       0.54841840       0.48250880
    17  C          0.32152000       0.34904160       0.45588120
    18  C          0.67848000       0.65095840       0.54411880
    19  H          0.30740000       0.37880000       0.38460000
    20  H          0.69260000       0.62120000       0.61540000
    21  N          0.38808170       0.20191120       0.49879900
    22  N          0.61191830       0.79808880       0.50120100
    23  H          0.41670000       0.13880000       0.45770000
    24  H          0.58330000       0.86120000       0.54230000
    25  C          0.74705190       0.25877160       0.21888100
    26  C          0.25294810       0.74122840       0.78111900
    27  H          0.72130000       0.17130000       0.25690000
    28  H          0.27870000       0.82870000       0.74310000
    29  C          0.59992000       0.37563180       0.17487120
    30  C          0.40008000       0.62436820       0.82512880
    31  H          0.47560000       0.36620000       0.18330000
    32  H          0.52440000       0.63380000       0.81670000
    33  C          0.63602000       0.50582170       0.11873110
    34  C          0.36398000       0.49417830       0.88126890
    35  H          0.53680000       0.58430000       0.08920000
    36  H          0.46320000       0.41570000       0.91080000
    37  C          0.81922000       0.51894150       0.10670100
    38  C          0.18078000       0.48105850       0.89329900
    39  H          0.84390000       0.60700000       0.06900000
    40  H          0.15610000       0.39300000       0.93100000
    41  C          0.96803190       0.40260140       0.15010900
    42  C          0.03196810       0.59739860       0.84989100
    43  H          0.09200000       0.41270000       0.14120000
    44  H          0.90800000       0.58730000       0.85880000
    45  C          0.13092170       0.01654140       0.18541900
    46  C          0.86907830       0.98345860       0.81458100
    47  C          0.22952000       0.03397190       0.09083110
    48  C          0.77048000       0.96602810       0.90916890
    49  H          0.27840000       0.11700000       0.06870000
    50  H          0.72160000       0.88300000       0.93130000
    51  C          0.25513000       0.92607000       0.02894130
    52  C          0.74487000       0.07393000       0.97105870
    53  H          0.32090000       0.93780000       0.96540000
    54  H          0.67910000       0.06220000       0.03460000
    55  C          0.18443000       0.80358000       0.06105150
    56  C          0.81557000       0.19642000       0.93894850
    57  H          0.20080000       0.73280000       0.01920000
    58  H          0.79920000       0.26720000       0.98080000
    59  C          0.09013000       0.78578000       0.15416150
    60  C          0.90987000       0.21422000       0.84583850
    61  H          0.04400000       0.70150000       0.17660000
    62  H          0.95600000       0.29850000       0.82340000
    63  C          0.06172000       0.89204830       0.21628120
    64  C          0.93828000       0.10795170       0.78371880
    65  H         -0.00480000       0.87900000       0.27950000
    66  H          0.00480000       0.12100000       0.72050000
    67  O          0.26099130       0.19332100       0.24702700
    68  O          0.73900870       0.80667900       0.75297300
    69  H          0.35080000       0.12470000       0.27120000
    70  H          0.64920000       0.87530000       0.72880000
    71  C          0.09689170       0.13881130       0.25105800
    72  C          0.90310830       0.86118870       0.74894200
    73  C          0.93283170       0.27134130       0.20671800
    74  C          0.06716830       0.72865870       0.79328200
    75  C          0.01906190       0.02836140       0.44890900
    76  C          0.98093810       0.97163860       0.55109100
    77  C          0.05051190       0.07823140       0.36017900
    78  C          0.94948810       0.92176860       0.63982100
