data_NAQPUT
_symmetry_space_group_name_H-M    'P1'
_symmetry_Int_Tables_number       1
loop_
_symmetry_equiv_pos_site_id
_symmetry_equiv_pos_as_xyz
1 x,y,z
_cell_length_a                   9.96182
_cell_length_b                   11.75463
_cell_length_c                   18.68594
_cell_angle_alpha                81.5312
_cell_angle_beta                 89.54301
_cell_angle_gamma                71.28201
loop_
_atom_site_label
_atom_site_type_symbol
_atom_site_fract_x
_atom_site_fract_y
_atom_site_fract_z
     1  S          0.33393400       0.45381400       0.57974200
     2  S          0.66606600       0.54618600       0.42025800
     3  F          0.45145180       0.15674130       0.94266700
     4  F          0.54854820       0.84325870       0.05733300
     5  F          0.36041150       0.06251130       0.88017900
     6  F          0.63958850       0.93748870       0.11982100
     7  F          0.52928140       0.11829170       0.83986800
     8  F          0.47071860       0.88170830       0.16013200
     9  O          0.32208150       0.25924120       0.84830700
    10  O          0.67791850       0.74075880       0.15169300
    11  N          0.19719170       0.46345150       0.45431900
    12  N          0.80280830       0.53654850       0.54568100
    13  H          0.22820000       0.52420000       0.43751100
    14  H          0.77180000       0.47580000       0.56248900
    15  H          0.13430000       0.44820000       0.42761300
    16  H          0.86570000       0.55180000       0.57238700
    17  N          0.14692140       0.34803130       0.55802800
    18  N          0.85307860       0.65196870       0.44197200
    19  C          0.21246170       0.41980160       0.52531100
    20  C          0.78753830       0.58019840       0.47468900
    21  C          0.18636170       0.31889160       0.63116100
    22  C          0.81363830       0.68110840       0.36883900
    23  C          0.13179180       0.24844160       0.68213100
    24  C          0.86820820       0.75155840       0.31786900
    25  H          0.06320000       0.21490000       0.66760000
    26  H          0.93680000       0.78510000       0.33240000
    27  C          0.17809190       0.22733170       0.75426100
    28  C          0.82190810       0.77266830       0.24573900
    29  H          0.14050000       0.18050000       0.78970000
    30  H          0.85950000       0.81950000       0.21030000
    31  C          0.27997190       0.27563170       0.77384100
    32  C          0.72002810       0.72436830       0.22615900
    33  C          0.33587180       0.34704160       0.72573100
    34  C          0.66412820       0.65295840       0.27426900
    35  H          0.40380000       0.38070000       0.74090000
    36  H          0.59620000       0.61930000       0.25910000
    37  C          0.28806170       0.36751150       0.65395100
    38  C          0.71193830       0.63248850       0.34604900
    39  C          0.41342000       0.15279180       0.87653100
    40  C          0.58658000       0.84720820       0.12346900
    41  S          0.16226500       0.74324400       0.65419200
    42  S          0.83773500       0.25675600       0.34580800
    43  F          0.20087130       0.38282110       0.97005600
    44  F          0.79912870       0.61717890       0.02994400
    45  F          0.34845120       0.46787120       0.92570700
    46  F          0.65154880       0.53212880       0.07429300
    47  F          0.24545150       0.51553120       0.02412600
    48  F          0.75454850       0.48446880       0.97587400
    49  O          0.11980150       0.57915120       0.92457700
    50  O          0.88019850       0.42084880       0.07542300
    51  N          0.04624170       0.73437150       0.52664900
    52  N          0.95375830       0.26562850       0.47335100
    53  H          0.10220000       0.77461900       0.51041100
    54  H          0.89780000       0.22538100       0.48958900
    55  H         -0.00170000       0.71320000       0.49951400
    56  H          0.00170000       0.28680000       0.50048600
    57  N          0.98888140       0.62484130       0.63096800
    58  N          0.01111860       0.37515870       0.36903200
    59  C          0.05530170       0.69542150       0.59814900
    60  C          0.94469830       0.30457850       0.40185100
    61  C          0.01920170       0.60376160       0.70556100
    62  C          0.98079830       0.39623840       0.29443900
    63  C          0.96234190       0.53577170       0.75669100
    64  C          0.03765810       0.46422830       0.24330900
    65  H          0.89890000       0.49720000       0.74210000
    66  H          0.10110000       0.50280000       0.25790000
    67  C         -0.00051810       0.52487170       0.82941100
    68  C          0.00051810       0.47512830       0.17058900
    69  H          0.96010000       0.47990000       0.86510000
    70  H          0.03990000       0.52010000       0.13490000
    71  C          0.09388190       0.57961170       0.84970100
    72  C          0.90611810       0.42038830       0.15029900
    73  C          0.15389190       0.64685160       0.80068100
    74  C          0.84610810       0.35314840       0.19931900
    75  H          0.21940000       0.68310000       0.81570000
    76  H          0.78060000       0.31690000       0.18430000
    77  C          0.11391180       0.65898150       0.72832100
    78  C          0.88608820       0.34101850       0.27167900
    79  C          0.22692000       0.48793180       0.95916110
    80  C          0.77308000       0.51206820       0.04083890
    81  S          0.78047500       0.23187400       0.77464200
    82  S          0.21952500       0.76812600       0.22535800
    83  F          0.69631130       0.70373130       0.85516800
    84  F          0.30368870       0.29626870       0.14483200
    85  F          0.51634130       0.78373110       0.91525700
    86  F          0.48365870       0.21626890       0.08474300
    87  F          0.50981180       0.83249120       0.80071700
    88  F          0.49018820       0.16750880       0.19928300
    89  O          0.50253130       0.65072120       0.85018700
    90  O          0.49746870       0.34927880       0.14981300
    91  N          0.83791170       0.14143150       0.64985900
    92  N          0.16208830       0.85856850       0.35014100
    93  H          0.82020000       0.13720000       0.60571300
    94  H          0.17980000       0.86280000       0.39428700
    95  H          0.87220000       0.07620000       0.67911200
    96  H          0.12780000       0.92380000       0.32088800
    97  N          0.70140150       0.34783130       0.64328800
    98  N          0.29859850       0.65216870       0.35671200
    99  C          0.77124180       0.24113160       0.67901900
   100  C          0.22875820       0.75886840       0.32098100
   101  C          0.64789170       0.43080160       0.69073900
   102  C          0.35210830       0.56919840       0.30926100
   103  C          0.56576180       0.55157170       0.67071100
   104  C          0.43423820       0.44842830       0.32928900
   105  H          0.54180000       0.58350000       0.62100000
   106  H          0.45820000       0.41650000       0.37900000
   107  C          0.51881180       0.62543170       0.72316100
   108  C          0.48118820       0.37456830       0.27683900
   109  H          0.46250000       0.70810000       0.70980000
   110  H          0.53750000       0.29190000       0.29020000
   111  C          0.55471180       0.57762170       0.79547100
   112  C          0.44528820       0.42237830       0.20452900
   113  C          0.63380180       0.45798170       0.81810100
   114  C          0.36619820       0.54201830       0.18189900
   115  H          0.65550000       0.42660000       0.86800000
   116  H          0.34450000       0.57340000       0.13200000
   117  C          0.68038170       0.38519160       0.76486100
   118  C          0.31961830       0.61480840       0.23513900
   119  C          0.55572000       0.74061180       0.85440110
   120  C          0.44428000       0.25938820       0.14559890
   121  N          0.55812150       0.94385860       0.62303900
   122  N          0.44187850       0.05614140       0.37696100
   123  N          0.25437160       0.87253860       0.49788800
   124  N          0.74562840       0.12746140       0.50211200
   125  C          0.46053180       0.92164840       0.58209900
   126  C          0.53946820       0.07835160       0.41790100
   127  C          0.49490180       0.82037840       0.54491100
   128  C          0.50509820       0.17962160       0.45508900
   129  H          0.58940000       0.76610000       0.54730000
   130  H          0.41060000       0.23390000       0.45270000
   131  C          0.39130190       0.80066840       0.50540100
   132  C          0.60869810       0.19933160       0.49459900
   133  H          0.41790000       0.73120000       0.48150000
   134  H          0.58210000       0.26880000       0.51850000
   135  C          0.22278190       0.96985840       0.53223100
   136  C          0.77721810       0.03014160       0.46776900
   137  H          0.12770000       0.02330000       0.52760000
   138  H          0.87230000       0.97670000       0.47240000
   139  C          0.31753180      -0.00192160       0.57359100
   140  C          0.68246820       0.00192160       0.42640900
   141  H          0.28720000       0.06870000       0.59640000
   142  H          0.71280000       0.93130000       0.40360000
   143  C          0.51702000       0.04734180       0.66218110
   144  C          0.48298000       0.95265820       0.33781890
   145  H          0.48060000       0.12270000       0.62770000
   146  H          0.51940000       0.87730000       0.37230000
   147  H          0.59970000       0.04900000       0.68950000
   148  H          0.40030000       0.95100000       0.31050000
   149  H          0.44300000       0.04000000       0.69570000
   150  H          0.55700000       0.96000000       0.30430000
   151  C          0.70310180       0.85984820       0.63257110
   152  C          0.29689820       0.14015180       0.36742890
   153  H          0.70230000       0.78010000       0.65660000
   154  H          0.29770000       0.21990000       0.34340000
   155  H          0.75960000       0.89120000       0.66240000
   156  H          0.24040000       0.10880000       0.33760000
   157  H          0.74480000       0.85190000       0.58510000
   158  H          0.25520000       0.14810000       0.41490000
   159  N          0.94269180       0.95198150       0.77159900
   160  N          0.05730820       0.04801850       0.22840100
   161  N          0.08137170       0.84736150       0.99058900
   162  N          0.91862830       0.15263850       0.00941100
   163  C          0.03721190       0.87979160       0.91967100
   164  C          0.96278810       0.12020840       0.08032900
   165  C          0.12092000       0.91785170       0.86580100
   166  C          0.87908000       0.08214830       0.13419900
   167  H          0.21210000       0.92010000       0.87840000
   168  H          0.78790000       0.07990000       0.12160000
   169  C          0.06942000       0.95148170       0.79534110
   170  C          0.93058000       0.04851830       0.20465890
   171  H          0.12840000       0.97640000       0.76050000
   172  H          0.87160000       0.02360000       0.23950000
   173  C          0.86482000       0.91357180       0.82281110
   174  C          0.13518000       0.08642820       0.17718890
   175  H          0.77470000       0.91140000       0.80810000
   176  H          0.22530000       0.08860000       0.19190000
   177  C          0.90562000       0.87730170       0.89470110
   178  C          0.09438000       0.12269830       0.10529890
   179  H          0.84490000       0.85050000       0.92760000
   180  H          0.15510000       0.14950000       0.07240000
   181  C          0.22372000       0.83932000       0.01333110
   182  C          0.77628000       0.16068000       0.98666890
   183  H          0.29260000       0.76890000      -0.00330000
   184  H          0.70740000       0.23110000       0.00330000
   185  H          0.23110000       0.83010000       0.06630000
   186  H          0.76890000       0.16990000       0.93370000
   187  H          0.24330000       0.91350000       0.99230000
   188  H          0.75670000       0.08650000       0.00770000
   189  C         -0.00208000       0.79842000       0.04270110
   190  C          0.00208000       0.20158000       0.95729890
   191  H          0.90290000       0.85770000       0.04310000
   192  H          0.09710000       0.14230000       0.95690000
   193  H          0.04410000       0.78110000       0.09100000
   194  H          0.95590000       0.21890000       0.90900000
   195  H         -0.00970000       0.72310000       0.02920000
   196  H          0.00970000       0.27690000       0.97080000
