data_NAQPON
_symmetry_space_group_name_H-M    'P1'
_symmetry_Int_Tables_number       1
loop_
_symmetry_equiv_pos_site_id
_symmetry_equiv_pos_as_xyz
1 x,y,z
_cell_length_a                   17.793618
_cell_length_b                   11.467212
_cell_length_c                   7.18656
_cell_angle_alpha                90.0
_cell_angle_beta                 94.3484
_cell_angle_gamma                90.0
loop_
_atom_site_label
_atom_site_type_symbol
_atom_site_fract_x
_atom_site_fract_y
_atom_site_fract_z
     1  S          0.26308300       0.51275400       0.58003700
     2  S          0.73691700       0.01275400       0.91996300
     3  S          0.73691700       0.48724600       0.41996300
     4  S          0.26308300       0.98724600       0.08003700
     5  F          0.63820700       0.39347110       0.89821190
     6  F          0.36179300       0.89347110       0.60178810
     7  F          0.36179300       0.60652890       0.10178810
     8  F          0.63820700       0.10652890       0.39821190
     9  F          0.59021700       0.24644110       0.75072000
    10  F          0.40978300       0.74644110       0.74928000
    11  F          0.40978300       0.75355890       0.24928000
    12  F          0.59021700       0.25355890       0.25072000
    13  F          0.57027800       0.41745130       0.64152000
    14  F          0.42972200       0.91745130       0.85848000
    15  F          0.42972200       0.58254870       0.35848000
    16  F          0.57027800       0.08254870       0.14152000
    17  O          0.51860700       0.36756120       0.90211190
    18  O          0.48139300       0.86756120       0.59788810
    19  O          0.48139300       0.63243880       0.09788810
    20  O          0.51860700       0.13243880       0.40211190
    21  N          0.13381900       0.41172150       0.44493000
    22  N          0.86618100       0.91172150       0.05507000
    23  N          0.86618100       0.58827850       0.55507000
    24  N          0.13381900       0.08827850       0.94493000
    25  H          0.11731400       0.48320000       0.42730000
    26  H          0.88268600       0.98320000       0.07270000
    27  H          0.88268600       0.51680000       0.57270000
    28  H          0.11731400       0.01680000       0.92730000
    29  H          0.10281400       0.35220000       0.40930000
    30  H          0.89718600       0.85220000       0.09070000
    31  H          0.89718600       0.64780000       0.59070000
    32  H          0.10281400       0.14780000       0.90930000
    33  N          0.22913900       0.29048120       0.57882000
    34  N          0.77086100       0.79048120       0.92118000
    35  N          0.77086100       0.70951880       0.42118000
    36  N          0.22913900       0.20951880       0.07882000
    37  C          0.20203100       0.39224150       0.52963000
    38  C          0.79796900       0.89224150       0.97037000
    39  C          0.79796900       0.60775850       0.47037000
    40  C          0.20203100       0.10775850       0.02963000
    41  C          0.30212100       0.30106150       0.66003000
    42  C          0.69787900       0.80106150       0.83997000
    43  C          0.69787900       0.69893850       0.33997000
    44  C          0.30212100       0.19893850       0.16003000
    45  C          0.34786110       0.20851160       0.72323000
    46  C          0.65213890       0.70851160       0.77677000
    47  C          0.65213890       0.79148840       0.27677000
    48  C          0.34786110       0.29148840       0.22323000
    49  H          0.32960000       0.13080000       0.71340000
    50  H          0.67040000       0.63080000       0.78660000
    51  H          0.67040000       0.86920000       0.28660000
    52  H          0.32960000       0.36920000       0.21340000
    53  C          0.41999110       0.23031160       0.80043000
    54  C          0.58000890       0.73031160       0.69957000
    55  C          0.58000890       0.76968840       0.19957000
    56  C          0.41999110       0.26968840       0.30043000
    57  H          0.45140000       0.16780000       0.84530000
    58  H          0.54860000       0.66780000       0.65470000
    59  H          0.54860000       0.83220000       0.15470000
    60  H          0.45140000       0.33220000       0.34530000
    61  C          0.44619110       0.34434160       0.81183000
    62  C          0.55380890       0.84434160       0.68817000
    63  C          0.55380890       0.65565840       0.18817000
    64  C          0.44619110       0.15565840       0.31183000
    65  C          0.40333110       0.43876160       0.75113000
    66  C          0.59666890       0.93876160       0.74887000
    67  C          0.59666890       0.56123840       0.24887000
    68  C          0.40333110       0.06123840       0.25113000
    69  H          0.42230000       0.51610000       0.76120000
    70  H          0.57770000       0.01610000       0.73880000
    71  H          0.57770000       0.48390000       0.23880000
    72  H          0.42230000       0.98390000       0.26120000
    73  C          0.33074100       0.41531150       0.67433000
    74  C          0.66925900       0.91531150       0.82567000
    75  C          0.66925900       0.58468850       0.32567000
    76  C          0.33074100       0.08468850       0.17433000
    77  C          0.57703110       0.35569170       0.79923000
    78  C          0.42296890       0.85569170       0.70077000
    79  C          0.42296890       0.64430830       0.20077000
    80  C          0.57703110       0.14430830       0.29923000
    81  O          0.97060200       0.73789110       0.23722000
    82  O          0.02939800       0.23789110       0.26278000
    83  O          0.02939800       0.26210890       0.76278000
    84  O          0.97060200       0.76210890       0.73722000
    85  O          0.06025800       0.62914110       0.38772000
    86  O          0.93974200       0.12914110       0.11228000
    87  O          0.93974200       0.37085890       0.61228000
    88  O          0.06025800       0.87085890       0.88772000
    89  N          0.08830900       0.03889130       0.37062000
    90  N          0.91169100       0.53889130       0.12938000
    91  N          0.91169100       0.96110870       0.62938000
    92  N          0.08830900       0.46110870       0.87062000
    93  H          0.06711500       0.11220000       0.32640000
    94  H          0.93288500       0.61220000       0.17360000
    95  H          0.93288500       0.88780000       0.67360000
    96  H          0.06711500       0.38780000       0.82640000
    97  C          0.05068100       0.94118150       0.32093000
    98  C          0.94931900       0.44118150       0.17907000
    99  C          0.94931900       0.05881850       0.67907000
   100  C          0.05068100       0.55881850       0.82093000
   101  H          0.00580000       0.94580000       0.24090000
   102  H         -0.00580000       0.44580000       0.25910000
   103  H         -0.00580000       0.05420000       0.75910000
   104  H          0.00580000       0.55420000       0.74090000
   105  C          0.07661100       0.83393150       0.38493000
   106  C          0.92338900       0.33393150       0.11507000
   107  C          0.92338900       0.16606850       0.61507000
   108  C          0.07661100       0.66606850       0.88493000
   109  C          0.14297110       0.83041160       0.50043000
   110  C          0.85702890       0.33041160      -0.00043000
   111  C          0.85702890       0.16958840       0.49957000
   112  C          0.14297110       0.66958840       0.00043000
   113  H          0.16250000       0.75780000       0.54540000
   114  H          0.83750000       0.25780000       0.95460000
   115  H          0.83750000       0.24220000       0.45460000
   116  H          0.16250000       0.74220000       0.04540000
   117  C          0.18051110       0.93277170       0.54943000
   118  C          0.81948890       0.43277170       0.95057000
   119  C          0.81948890       0.06722830       0.45057000
   120  C          0.18051110       0.56722830       0.04943000
   121  H          0.22590000       0.93080000       0.62800000
   122  H          0.77410000       0.43080000       0.87200000
   123  H          0.77410000       0.06920000       0.37200000
   124  H          0.22590000       0.56920000       0.12800000
   125  C          0.15150100       0.03780160       0.48343000
   126  C          0.84849900       0.53780160       0.01657000
   127  C          0.84849900       0.96219840       0.51657000
   128  C          0.15150100       0.46219840      -0.01657000
   129  H          0.17630000       0.10880000       0.51790000
   130  H          0.82370000       0.60880000      -0.01790000
   131  H          0.82370000       0.89120000       0.48210000
   132  H          0.17630000       0.39120000       0.01790000
   133  C          0.03259100       0.72396150       0.33353000
   134  C          0.96740900       0.22396150       0.16647000
   135  C          0.96740900       0.27603850       0.66647000
   136  C          0.03259100       0.77603850       0.83353000
