data_NARVEL
_symmetry_space_group_name_H-M    'P1'
_symmetry_Int_Tables_number       1
loop_
_symmetry_equiv_pos_site_id
_symmetry_equiv_pos_as_xyz
1 x,y,z
_cell_length_a                   6.87493
_cell_length_b                   14.83196
_cell_length_c                   20.46138
_cell_angle_alpha                70.48701
_cell_angle_beta                 83.74301
_cell_angle_gamma                87.69401
loop_
_atom_site_label
_atom_site_type_symbol
_atom_site_fract_x
_atom_site_fract_y
_atom_site_fract_z
     1  O          0.35512000       0.27466100       0.35773700
     2  O          0.64488000       0.72533900       0.64226300
     3  O          0.07542000       0.12248110       0.29250800
     4  O          0.92458000       0.87751890       0.70749200
     5  O          0.14752000      -0.00505110       0.37704800
     6  O          0.85248000       0.00505110       0.62295200
     7  O          0.89862000       0.89439890       0.33113900
     8  O          0.10138000       0.10560110       0.66886100
     9  O          0.59712000       0.91483890       0.36740900
    10  O          0.40288000       0.08516110       0.63259100
    11  O          0.87362000       0.07603110       0.45770800
    12  O          0.12638000       0.92396890       0.54229200
    13  O          0.71353000       0.94333880       0.48270800
    14  O          0.28647000       0.05666120       0.51729200
    15  N          0.58252000       0.15444110       0.36366800
    16  N          0.41748000       0.84555890       0.63633200
    17  N          0.68162000       0.11232110       0.26048800
    18  N          0.31838000       0.88767890       0.73951200
    19  N          0.52902000       0.21338120       0.15984900
    20  N          0.47098000       0.78661880       0.84015100
    21  N          0.40082000       0.28779120       0.15362900
    22  N          0.59918000       0.71220880       0.84637100
    23  N          0.35452000       0.30349110       0.21203900
    24  N          0.64548000       0.69650890       0.78796100
    25  N          0.45732000       0.23768110       0.25927800
    26  N          0.54268000       0.76231890       0.74072200
    27  N          0.03432000       0.05107120       0.34224800
    28  N          0.96568000       0.94892880       0.65775200
    29  N          0.76842000       0.93662890       0.35352900
    30  N          0.23158000       0.06337110       0.64647100
    31  N          0.79782000       0.01358120       0.44311900
    32  N          0.20218000       0.98641880       0.55688100
    33  C          0.45683000       0.22516130       0.33139100
    34  C          0.54317000       0.77483870       0.66860900
    35  C          0.68033000       0.10724130       0.32604900
    36  C          0.31967000       0.89275870       0.67395100
    37  C          0.56273000       0.18302130       0.22655100
    38  C          0.43727000       0.81697870       0.77344900
    39  C          0.81663000       0.02922130       0.36505100
    40  C          0.18337000       0.97077870       0.63494900
    41  N          0.05962000       0.20269120       0.05279800
    42  N          0.94038000       0.79730880       0.94720200
    43  C          0.03553000       0.30460160       0.04925120
    44  C          0.96447000       0.69539840       0.95074880
    45  H          0.13620000       0.32090000       0.07380000
    46  H          0.86380000       0.67910000       0.92620000
    47  H          0.90570000       0.31370000       0.07120000
    48  H          0.09430000       0.68630000       0.92880000
    49  H          0.04880000       0.34610000       0.00040000
    50  H          0.95120000       0.65390000      -0.00040000
    51  C          0.25443000       0.18917170       0.01755120
    52  C          0.74557000       0.81082830       0.98244880
    53  H          0.35750000       0.20850000       0.03960000
    54  H          0.64250000       0.79150000       0.96040000
    55  H          0.26180000       0.22840000       0.96820000
    56  H          0.73820000       0.77160000       0.03180000
    57  H          0.27220000       0.12170000       0.02170000
    58  H          0.72780000       0.87830000       0.97830000
    59  C          0.04703000       0.13956160       0.12717100
    60  C          0.95297000       0.86043840       0.87282900
    61  H          0.15260000       0.15550000       0.14990000
    62  H          0.84740000       0.84450000       0.85010000
    63  H          0.05990000       0.07260000       0.12940000
    64  H          0.94010000       0.92740000       0.87060000
    65  H          0.92040000       0.14920000       0.15100000
    66  H          0.07960000       0.85080000       0.84900000
    67  C          0.90176000       0.17752000       0.01760120
    68  C          0.09824000       0.82248000       0.98239880
    69  H          0.91000000       0.21930000       0.96880000
    70  H          0.09000000       0.78070000       0.03120000
    71  H          0.77400000       0.18590000       0.04130000
    72  H          0.22600000       0.81410000       0.95870000
    73  H          0.91750000       0.11070000       0.01950000
    74  H          0.08250000       0.88930000       0.98050000
    75  O          0.03452000       0.67889100       0.16633800
    76  O          0.96548000       0.32110900       0.83366200
    77  O          0.41148000       0.77800110       0.09999800
    78  O          0.58852000       0.22199890       0.90000200
    79  O          0.22518000       0.90155110       0.09668800
    80  O          0.77482000       0.09844890       0.90331200
    81  O          0.71158000       0.98231110       0.15998800
    82  O          0.28842000       0.01768890       0.84001200
    83  O          0.58017000      -0.00388880       0.06507800
    84  O          0.41983000       0.00388880       0.93492200
    85  O          0.19608000       0.83639110       0.24304700
    86  O          0.80392000       0.16360890       0.75695300
    87  O          0.33488000       0.97258110       0.22745800
    88  O          0.66512000       0.02741890       0.77254200
    89  N          0.76108000       0.77424110       0.16570800
    90  N          0.23892000       0.22575890       0.83429200
    91  N          0.57638000       0.76615110       0.27521800
    92  N          0.42362000       0.23384890       0.72478200
    93  N          0.73508000       0.66585120       0.37458800
    94  N          0.26492000       0.33414880       0.62541200
    95  N          0.90297000       0.61368120       0.37738900
    96  N          0.09703000       0.38631880       0.62261100
    97  N         -0.01182000       0.62012120       0.31598900
    98  N          0.01182000       0.37987880       0.68401100
    99  N          0.87148000       0.67971110       0.27027800
   100  N          0.12852000       0.32028890       0.72972200
   101  N          0.36078000       0.84704120       0.11679800
   102  N          0.63922000       0.15295880       0.88320200
   103  N          0.60018000       0.95912120       0.12659900
   104  N          0.39982000       0.04087880       0.87340100
   105  N          0.32118000       0.89683120       0.21773800
   106  N          0.67882000       0.10316880       0.78226200
   107  C          0.89847000       0.70975140       0.19604100
   108  C          0.10153000       0.29024860       0.80395900
   109  C          0.61577000       0.79435130       0.20739900
   110  C          0.38423000       0.20564870       0.79260100
   111  C          0.71767000       0.70667130       0.30713100
   112  C          0.28233000       0.29332870       0.69286900
   113  C          0.47777000       0.87084130       0.16811900
   114  C          0.52223000       0.12915870       0.83188100
   115  N          0.21982000       0.69936120       0.48690800
   116  N          0.78018000       0.30063880       0.51309200
   117  C          0.36263000       0.72881190       0.52631120
   118  C          0.63737000       0.27118810       0.47368880
   119  H          0.49420000       0.70730000       0.51450000
   120  H          0.50580000       0.29270000       0.48550000
   121  H          0.32550000       0.69980000       0.57650000
   122  H          0.67450000       0.30020000       0.42350000
   123  H          0.36130000       0.79860000       0.51370000
   124  H          0.63870000       0.20140000       0.48630000
   125  C          0.01643000       0.72892000       0.50677130
   126  C         -0.01643000       0.27108000       0.49322870
   127  H          0.92360000       0.70940000       0.48090000
   128  H          0.07640000       0.29060000       0.51910000
   129  H          0.01090000       0.79850000       0.49540000
   130  H         -0.01090000       0.20150000       0.50460000
   131  H          0.98190000       0.69800000       0.55690000
   132  H          0.01810000       0.30200000       0.44310000
   133  C          0.26794000       0.74942190       0.41148110
   134  C          0.73206000       0.25057810       0.58851890
   135  H          0.40210000       0.73340000       0.39740000
   136  H          0.59790000       0.26660000       0.60260000
   137  H          0.25660000       0.81860000       0.40170000
   138  H          0.74340000       0.18140000       0.59830000
   139  H          0.17700000       0.72940000       0.38530000
   140  H          0.82300000       0.27060000       0.61470000
   141  C          0.22914000       0.59511160       0.50314160
   142  C          0.77086000       0.40488840       0.49685840
   143  H          0.35980000       0.57680000       0.48740000
   144  H          0.64020000       0.42320000       0.51260000
   145  H          0.13120000       0.57540000       0.47930000
   146  H          0.86880000       0.42460000       0.52070000
   147  H          0.20260000       0.56360000       0.55360000
   148  H          0.79740000       0.43640000       0.44640000
   149  O          0.33662000       0.55082120       0.03744800
   150  O          0.66338000       0.44917880       0.96255200
   151  O          0.61883000       0.59843130       0.06933110
   152  O          0.38117000       0.40156870       0.93066890
   153  O          0.79968000       0.37303110       0.27636800
   154  O          0.20032000       0.62696890       0.72363200
   155  O          0.76658000       0.39631120       0.16106800
   156  O          0.23342000       0.60368880       0.83893200
   157  O          0.51882000       0.52764120       0.31008100
   158  O          0.48118000       0.47235880       0.68991900
   159  O          0.27042000       0.45603120       0.39402900
   160  O          0.72958000       0.54396880       0.60597100
   161  N          0.45653000       0.56411130       0.08902100
   162  N          0.54347000       0.43588870       0.91097900
   163  N          0.16223000       0.50811130       0.07255100
   164  N          0.83777000       0.49188870       0.92744900
   165  N          0.86918000       0.41065120       0.20215900
   166  N          0.13082000       0.58934880       0.79784100
   167  N          0.93787000       0.39573130       0.31329900
   168  N          0.06213000       0.60426870       0.68670100
   169  N          0.32853000       0.48163120       0.33247100
   170  N          0.67147000       0.51836880       0.66752900
   171  N          0.55213000       0.55235140       0.23746110
   172  N          0.44787000       0.44764860       0.76253890
   173  C          0.35123000       0.53043140       0.14970110
   174  C          0.64877000       0.46956860       0.85029890
   175  C          0.17213000       0.49669130       0.13840100
   176  C          0.82787000       0.50330870       0.86159900
   177  C          0.03693000       0.45286130       0.19834110
   178  C          0.96307000       0.54713870       0.80165890
   179  C          0.07783000       0.44208140       0.26658100
   180  C          0.92217000       0.55791860       0.73341900
   181  C          0.25893000       0.47983140       0.27509110
   182  C          0.74107000       0.52016860       0.72490890
   183  C          0.39783000       0.52392140       0.21763120
   184  C          0.60217000       0.47607860       0.78236880
