data_NASFIX
_symmetry_space_group_name_H-M    'P1'
_symmetry_Int_Tables_number       1
loop_
_symmetry_equiv_pos_site_id
_symmetry_equiv_pos_as_xyz
1 x,y,z
_cell_length_a                   11.95584
_cell_length_b                   14.85095
_cell_length_c                   14.17475
_cell_angle_alpha                90.0
_cell_angle_beta                 94.85901
_cell_angle_gamma                90.0
loop_
_atom_site_label
_atom_site_type_symbol
_atom_site_fract_x
_atom_site_fract_y
_atom_site_fract_z
     1  C          0.10929800       0.92552700       0.25362700
     2  C          0.89070200       0.42552700       0.24637300
     3  C          0.89070200       0.07447300       0.74637300
     4  C          0.10929800       0.57447300       0.75362700
     5  H          0.02907000       0.93034000       0.24675000
     6  H          0.97093000       0.43034000       0.25325000
     7  H          0.97093000       0.06966000       0.75325000
     8  H          0.02907000       0.56966000       0.74675000
     9  B          0.17557900       0.89682800       0.15481800
    10  B          0.82442100       0.39682800       0.34518200
    11  B          0.82442100       0.10317200       0.84518200
    12  B          0.17557900       0.60317200       0.65481800
    13  B          0.16577900       0.81905800       0.25092800
    14  B          0.83422100       0.31905800       0.24907200
    15  B          0.83422100       0.18094200       0.74907200
    16  B          0.16577900       0.68094200       0.75092800
    17  B          0.16935900       0.88226800       0.35890800
    18  B          0.83064100       0.38226800       0.14109200
    19  B          0.83064100       0.11773200       0.64109200
    20  B          0.16935900       0.61773200       0.85890800
    21  B          0.18191900      -0.00074200       0.32914800
    22  B          0.81808100       0.49925800       0.17085200
    23  B          0.81808100       0.00074200       0.67085200
    24  B          0.18191900       0.50074200       0.82914800
    25  B          0.18583900       0.00823800       0.20342800
    26  B          0.81416100       0.50823800       0.29657200
    27  B          0.81416100      -0.00823800       0.79657200
    28  B          0.18583900       0.49176200       0.70342800
    29  B          0.30830900       0.95181800       0.17103800
    30  B          0.69169100       0.45181800       0.32896200
    31  B          0.69169100       0.04818200       0.82896200
    32  B          0.30830900       0.54818200       0.67103800
    33  B          0.29543900       0.83494800       0.20085800
    34  B          0.70456100       0.33494800       0.29914200
    35  B          0.70456100       0.16505200       0.79914200
    36  B          0.29543900       0.66505200       0.70085800
    37  B          0.29240900       0.82591800       0.32677800
    38  B          0.70759100       0.32591800       0.17322200
    39  B          0.70759100       0.17408200       0.67322200
    40  B          0.29240900       0.67408200       0.82677800
    41  B          0.30168900       0.93748800       0.37524800
    42  B          0.69831100       0.43748800       0.12475200
    43  B          0.69831100       0.06251200       0.62475200
    44  B          0.30168900       0.56251200       0.87524800
    45  B          0.31203900       0.01544800       0.27920800
    46  B          0.68796100       0.51544800       0.22079200
    47  B          0.68796100       0.98455200       0.72079200
    48  B          0.31203900       0.48455200       0.77920800
    49  B          0.37953900       0.90831800       0.27755800
    50  B          0.62046100       0.40831800       0.22244200
    51  B          0.62046100       0.09168200       0.72244200
    52  B          0.37953900       0.59168200       0.77755800
    53  Cl         0.10028200       0.87835118       0.04401217
    54  Cl         0.89971800       0.37835118       0.45598783
    55  Cl         0.89971800       0.12164882       0.95598783
    56  Cl         0.10028200       0.62164882       0.54401217
    57  Cl         0.08152200       0.72231517       0.23529200
    58  Cl         0.91847800       0.22231517       0.26470800
    59  Cl         0.91847800       0.27768483       0.76470800
    60  Cl         0.08152200       0.77768483       0.73529200
    61  Cl         0.08889200       0.84974319       0.45214619
    62  Cl         0.91110800       0.34974319       0.04785381
    63  Cl         0.91110800       0.15025681       0.54785381
    64  Cl         0.08889200       0.65025681       0.95214619
    65  Cl         0.11369200       0.08218418       0.39321219
    66  Cl         0.88630800       0.58218418       0.10678781
    67  Cl         0.88630800       0.91781582       0.60678781
    68  Cl         0.11369200       0.41781582       0.89321219
    69  Cl         0.11945200       0.09918517       0.14071818
    70  Cl         0.88054800       0.59918517       0.35928182
    71  Cl         0.88054800       0.90081483       0.85928182
    72  Cl         0.11945200       0.40081483       0.64071818
    73  Cl         0.38232200       0.98625619       0.07350618
    74  Cl         0.61767800       0.48625619       0.42649382
    75  Cl         0.61767800       0.01374381       0.92649382
    76  Cl         0.38232200       0.51374381       0.57350618
    77  Cl         0.35530200       0.74755917       0.13536718
    78  Cl         0.64469800       0.24755917       0.36463282
    79  Cl         0.64469800       0.25244083       0.86463282
    80  Cl         0.35530200       0.75244083       0.63536718
    81  Cl         0.35112200       0.73019518       0.38815718
    82  Cl         0.64887800       0.23019518       0.11184282
    83  Cl         0.64887800       0.26980482       0.61184282
    84  Cl         0.35112200       0.76980482       0.88815718
    85  Cl         0.36539200       0.95953218       0.49133617
    86  Cl         0.63460800       0.45953218       0.00866383
    87  Cl         0.63460800       0.04046782       0.50866383
    88  Cl         0.36539200       0.54046782      -0.00866383
    89  Cl         0.38953200       0.11818318       0.29413819
    90  Cl         0.61046800       0.61818318       0.20586181
    91  Cl         0.61046800       0.88181682       0.70586181
    92  Cl         0.38953200       0.38181682       0.79413819
    93  Cl         0.52947200       0.89906019       0.28823418
    94  Cl         0.47052800       0.39906019       0.21176582
    95  Cl         0.47052800       0.10093981       0.71176582
    96  Cl         0.52947200       0.60093981       0.78823418
    97  O          0.41580900       0.17218700       0.93866800
    98  O          0.58419100       0.67218700       0.56133200
    99  O          0.58419100       0.82781300       0.06133200
   100  O          0.41580900       0.32781300       0.43866800
   101  H          0.40020000       0.24441800       0.97841700
   102  H          0.59980000       0.74441800       0.52158300
   103  H          0.59980000       0.75558200       0.02158300
   104  H          0.40020000       0.25558200       0.47841700
   105  H          0.36220000       0.15211500       0.90131600
   106  H          0.63780000       0.65211500       0.59868400
   107  H          0.63780000       0.84788500       0.09868400
   108  H          0.36220000       0.34788500       0.40131600
   109  H          0.48020000       0.16971900       0.91731900
   110  H          0.51980000       0.66971900       0.58268100
   111  H          0.51980000       0.83028100       0.08268100
   112  H          0.48020000       0.33028100       0.41731900
   113  O          0.37691900       0.31197700       0.01398700
   114  O          0.62308100       0.81197700       0.48601300
   115  O          0.62308100       0.68802300       0.98601300
   116  O          0.37691900       0.18802300       0.51398700
   117  H          0.40811900       0.32301500       0.06461700
   118  H          0.59188100       0.82301500       0.43538300
   119  H          0.59188100       0.67698500       0.93538300
   120  H          0.40811900       0.17698500       0.56461700
   121  H          0.38020000       0.35771800       0.97881800
   122  H          0.61980000       0.85771800       0.52118200
   123  H          0.61980000       0.64228200       0.02118200
   124  H          0.38020000       0.14228200       0.47881800
   125  C          0.81066100       0.91780100       0.32395100
   126  C          0.18933900       0.41780100       0.17604900
   127  C          0.18933900       0.08219900       0.67604900
   128  C          0.81066100       0.58219900       0.82395100
   129  H          0.80900000       0.91530000       0.39080000
   130  H          0.19100000       0.41530000       0.10920000
   131  H          0.19100000       0.08470000       0.60920000
   132  H          0.80900000       0.58470000       0.89080000
   133  C          0.80192100      -0.00043100       0.27790100
   134  C          0.19807900       0.49956900       0.22209900
   135  C          0.19807900       0.00043100       0.72209900
   136  C          0.80192100       0.50043100       0.77790100
   137  H          0.79330000       0.05320000       0.31300000
   138  H          0.20670000       0.55320000       0.18700000
   139  H          0.20670000       0.94680000       0.68700000
   140  H          0.79330000       0.44680000       0.81300000
   141  C          0.80561110       0.00379900       0.18079100
   142  C          0.19438890       0.50379900       0.31920900
   143  C          0.19438890      -0.00379900       0.81920900
   144  C          0.80561110       0.49620100       0.68079100
   145  H          0.79940000       0.06030000       0.14940000
   146  H          0.20060000       0.56030000       0.35060000
   147  H          0.20060000       0.93970000       0.85060000
   148  H          0.79940000       0.43970000       0.64940000
   149  C          0.81826110       0.92610100       0.12923100
   150  C          0.18173890       0.42610100       0.37076900
   151  C          0.18173890       0.07389900       0.87076900
   152  C          0.81826110       0.57389900       0.62923100
   153  H          0.82150000       0.92920000       0.06260000
   154  H          0.17850000       0.42920000       0.43740000
   155  H          0.17850000       0.07080000       0.93740000
   156  H          0.82150000       0.57080000       0.56260000
   157  C          0.82618110       0.84340900       0.17514120
   158  C          0.17381890       0.34340900       0.32485880
   159  C          0.17381890       0.15659100       0.82485880
   160  C          0.82618110       0.65659100       0.67514120
   161  H          0.83450000       0.78970000       0.14000000
   162  H          0.16550000       0.28970000       0.36000000
   163  H          0.16550000       0.21030000       0.86000000
   164  H          0.83450000       0.71030000       0.64000000
   165  C          0.82178100       0.83956900       0.27293120
   166  C          0.17821900       0.33956900       0.22706880
   167  C          0.17821900       0.16043100       0.72706880
   168  C          0.82178100       0.66043100       0.77293120
   169  H          0.82640000       0.78310000       0.30450000
   170  H          0.17360000       0.28310000       0.19550000
   171  H          0.17360000       0.21690000       0.69550000
   172  H          0.82640000       0.71690000       0.80450000
