data_NATGIA03
_symmetry_space_group_name_H-M    'P1'
_symmetry_Int_Tables_number       1
loop_
_symmetry_equiv_pos_site_id
_symmetry_equiv_pos_as_xyz
1 x,y,z
_cell_length_a                   9.6023
_cell_length_b                   10.8073
_cell_length_c                   12.4334
_cell_angle_alpha                109.8595
_cell_angle_beta                 96.5983
_cell_angle_gamma                103.53725
loop_
_atom_site_label
_atom_site_type_symbol
_atom_site_fract_x
_atom_site_fract_y
_atom_site_fract_z
     1  O          0.24884400       0.47710500       0.93229600
     2  O          0.75115600       0.52289500       0.06770400
     3  O          0.88684300       0.12198700       0.70734500
     4  O          0.11315700       0.87801300       0.29265500
     5  O          0.67140300       0.04467800       0.73829300
     6  O          0.32859700       0.95532200       0.26170700
     7  O          0.62497500       0.12717500       0.14271600
     8  O          0.37502500       0.87282500       0.85728400
     9  O          0.78353400       0.30420600       0.28143600
    10  O          0.21646600       0.69579400       0.71856400
    11  O          0.76423600       0.78854900       0.80033400
    12  O          0.23576400       0.21145100       0.19966600
    13  O          0.54772600       0.64201700       0.74134500
    14  O          0.45227400       0.35798300       0.25865500
    15  O          0.94471500       0.06391500       0.21397500
    16  O          0.05528500       0.93608500       0.78602500
    17  O          0.84403500      -0.00589400       0.33903500
    18  O          0.15596500       0.00589400       0.66096500
    19  N          0.17745400       0.47355400       0.10276400
    20  N          0.82254600       0.52644600       0.89723600
    21  N          0.80005600       0.11414400       0.77230500
    22  N          0.19994400       0.88585600       0.22769500
    23  N          0.73819600       0.22381400       0.17832500
    24  N          0.26180400       0.77618600       0.82167500
    25  N          0.39228400       0.62467400       0.11285400
    26  N          0.60771600       0.37532600       0.88714600
    27  N          0.65071400       0.72643400       0.81850600
    28  N          0.34928600       0.27356600       0.18149400
    29  N          0.84909400      -0.01328600       0.23876400
    30  N          0.15090600       0.01328600       0.76123600
    31  C          0.76769600       0.16512400       0.97475500
    32  C          0.23230400       0.83487600       0.02524500
    33  C          0.85489600       0.19324400       0.89894600
    34  C          0.14510400       0.80675600       0.10105400
    35  C         -0.00988400       0.29283400       0.93490600
    36  C          0.00988400       0.70716600       0.06509400
    37  C          0.04428300       0.37143400       0.05531400
    38  C          0.95571700       0.62856600       0.94468600
    39  C          0.95962600       0.34594400       0.13492400
    40  C          0.04037400       0.65405600       0.86507600
    41  C          0.82554600       0.24523400       0.09295500
    42  C          0.17445400       0.75476600       0.90704500
    43  C          0.27085300       0.52130400       0.03979400
    44  C          0.72914700       0.47869600       0.96020600
    45  C          0.50543300       0.69828400       0.07877400
    46  C          0.49456700       0.30171600       0.92122600
    47  C          0.51755400       0.67370400       0.96222600
    48  C          0.48244600       0.32629600       0.03777400
    49  C          0.63927400       0.75400400       0.94117600
    50  C          0.36072600       0.24599600       0.05882400
    51  C          0.75143400       0.85707400       0.02800400
    52  C          0.24856600       0.14292600       0.97199600
    53  C          0.73424400       0.87883400       0.14213400
    54  C          0.26575600       0.12116600       0.85786600
    55  C          0.61517400       0.80477400       0.16969400
    56  C          0.38482600       0.19522600       0.83030600
    57  H          0.19802400       0.52564200       0.19008300
    58  H          0.80197600       0.47435800       0.80991700
    59  H          0.66173100       0.08800400       0.94213200
    60  H          0.33826900       0.91199600       0.05786800
    61  H          0.04897300       0.30845700       0.86909600
    62  H          0.95102700       0.69154300       0.13090400
    63  H         -0.00148300       0.40611200       0.22780200
    64  H          0.00148300       0.59388800       0.77219800
    65  H          0.43574300       0.59366700       0.88928900
    66  H          0.56425700       0.40633300       0.11071100
    67  H          0.84511200       0.91782800       0.00906800
    68  H          0.15488800       0.08217200      -0.00906800
    69  H          0.60439500       0.82743300       0.25961000
    70  H          0.39560500       0.17256700       0.74039000
    71  H          0.40536900       0.64523100       0.19946700
    72  H          0.59463100       0.35476900       0.80053300
    73  O          0.21321600       0.61973900       0.33736700
    74  O          0.78678400       0.38026100       0.66263300
    75  O          0.45105500       0.70287800       0.34586500
    76  O          0.54894500       0.29712200       0.65413500
    77  C          0.33827500       0.70104500       0.38989500
    78  C          0.66172500       0.29895500       0.61010500
    79  C          0.35710700       0.80617100       0.51132700
    80  C          0.64289300       0.19382900       0.48867300
    81  H          0.45764800       0.83359500       0.57092300
    82  H          0.54235200       0.16640500       0.42907700
    83  H          0.28170200       0.76572200       0.55540200
    84  H          0.71829800       0.23427800       0.44459800
    85  H          0.34213400       0.89723100       0.50399400
    86  H          0.65786600       0.10276900       0.49600600
    87  N          0.19707400       0.32455400       0.54058600
    88  N          0.80292600       0.67544600       0.45941400
    89  C          0.20930600       0.18283500       0.48015500
    90  C          0.79069400       0.81716500       0.51984500
    91  C          0.04852800       0.33077900       0.49868100
    92  C          0.95147200       0.66922100       0.50131900
    93  C          0.22221700       0.36014600       0.67017500
    94  C          0.77778300       0.63985400       0.32982500
    95  C          0.31330800       0.42531600       0.51691300
    96  C          0.68669200       0.57468400       0.48308700
    97  H          0.31387500       0.18156700       0.51679100
    98  H          0.68612500       0.81843300       0.48320900
    99  H          0.19755200       0.16459700       0.38988800
   100  H          0.80244800       0.83540300       0.61011200
   101  H          0.12647400       0.11361000       0.49838700
   102  H          0.87352600       0.88639000       0.50161300
   103  H          0.03582500       0.31108500       0.40812700
   104  H          0.96417500       0.68891500       0.59187300
   105  H          0.04544700       0.43273000       0.54217700
   106  H          0.95455300       0.56727000       0.45782300
   107  H          0.97482200       0.26272600       0.52500100
   108  H          0.02517800       0.73727400       0.47499900
   109  H          0.33145200       0.36114400       0.69663400
   110  H          0.66854800       0.63885600       0.30336600
   111  H          0.14508500       0.28454000       0.68653800
   112  H          0.85491500       0.71546000       0.31346200
   113  H          0.20536800       0.45808800       0.70600300
   114  H          0.79463200       0.54191200       0.29399700
   115  H          0.41298900       0.41156800       0.54957800
   116  H          0.58701100       0.58843200       0.45042200
   117  H          0.30310400       0.52457800       0.56070500
   118  H          0.69689600       0.47542200       0.43929500
   119  H          0.29231200       0.40022300       0.42537700
   120  H          0.70768800       0.59977700       0.57462300
