data_NAVNIK06
_symmetry_space_group_name_H-M    'P1'
_symmetry_Int_Tables_number       1
loop_
_symmetry_equiv_pos_site_id
_symmetry_equiv_pos_as_xyz
1 x,y,z
_cell_length_a                   3.92408
_cell_length_b                   9.6672
_cell_length_c                   12.3753
_cell_angle_alpha                75.8011
_cell_angle_beta                 84.98011
_cell_angle_gamma                78.54111
loop_
_atom_site_label
_atom_site_type_symbol
_atom_site_fract_x
_atom_site_fract_y
_atom_site_fract_z
     1  Br         0.57426130       0.34147400       0.44163400
     2  Br         0.42573870       0.65852600       0.55836600
     3  Br         0.34208130       0.18909500       0.24656300
     4  Br         0.65791870       0.81090500       0.75343700
     5  C          0.59811100       0.06254000       0.58013000
     6  C          0.40188900       0.93746000       0.41987000
     7  H          0.66659500       0.10507800       0.63426400
     8  H          0.33340500       0.89492200       0.36573600
     9  C          0.52941100       0.14424000       0.47313000
    10  C          0.47058900       0.85576000       0.52687000
    11  C          0.43411100       0.08214000       0.39283000
    12  C          0.56588900       0.91786000       0.60717000
    13  N          0.08581200       0.80884000       0.23353000
    14  N          0.91418800       0.19116000       0.76647000
    15  C          0.18161400       0.85385000       0.12694000
    16  C          0.81838600       0.14615000       0.87306000
    17  H          0.25760300       0.94439600       0.10430800
    18  H          0.74239700       0.05560400       0.89569200
    19  C          0.17681300       0.77635000       0.04704000
    20  C          0.82318700       0.22365000       0.95296000
    21  H          0.24445400       0.81431800       0.97161300
    22  H          0.75554600       0.18568200       0.02838700
    23  C          0.07231100       0.64244000       0.07773000
    24  C          0.92768900       0.35756000       0.92227000
    25  C          0.97188700       0.59505000       0.18934000
    26  C          0.02811300       0.40495000       0.81066000
    27  H          0.89451800       0.50500000       0.21492500
    28  H          0.10548200       0.49500000       0.78507500
    29  C         -0.01321300       0.68125000       0.26224000
    30  C          0.01321300       0.31875000       0.73776000
    31  H          0.92140300       0.64631700       0.33827700
    32  H          0.07859700       0.35368300       0.66172300
    33  C          0.06851200       0.55894000      -0.00684000
    34  C          0.93148800       0.44106000       0.00684000
    35  H          0.17457600       0.59294600       0.92215000
    36  H          0.82542400       0.40705400       0.07785000
