data_NAVNAC
_symmetry_space_group_name_H-M    'P1'
_symmetry_Int_Tables_number       1
loop_
_symmetry_equiv_pos_site_id
_symmetry_equiv_pos_as_xyz
1 x,y,z
_cell_length_a                   3.86084
_cell_length_b                   9.650611
_cell_length_c                   12.202214
_cell_angle_alpha                75.7442
_cell_angle_beta                 86.0612
_cell_angle_gamma                80.6482
loop_
_atom_site_label
_atom_site_type_symbol
_atom_site_fract_x
_atom_site_fract_y
_atom_site_fract_z
     1  Br         0.54662400       0.34622200       0.44592200
     2  Br         0.45337600       0.65377800       0.55407800
     3  Br         0.27667400       0.19714200       0.24838200
     4  Br         0.72332600       0.80285800       0.75161800
     5  C          0.60884000       0.06194160       0.58161120
     6  C          0.39116000       0.93805840       0.41838880
     7  H          0.68950000       0.10420000       0.64031700
     8  H          0.31050000       0.89580000       0.35968300
     9  C          0.51724000       0.14665150       0.47492120
    10  C          0.48276000       0.85334850       0.52507880
    11  C          0.40984000       0.08515160       0.39344120
    12  C          0.59016000       0.91484840       0.60655880
    13  N          0.90914000       0.19929150       0.77404120
    14  N          0.09086000       0.80070850       0.22595880
    15  C          0.95914000       0.36160160       0.93071130
    16  C          0.04086000       0.63839840       0.06928870
    17  C          0.02345000       0.32802180       0.74335140
    18  C         -0.02345000       0.67197820       0.25664860
    19  H          0.08460000       0.35820000       0.66861900
    20  H          0.91540000       0.64180000       0.33138100
    21  C          0.05404000       0.41326170       0.81777130
    22  C          0.94596000       0.58673830       0.18222870
    23  H          0.13950000       0.50220000       0.79361700
    24  H          0.86050000       0.49780000       0.20638300
    25  C          0.82064000       0.15191180       0.88315140
    26  C          0.17936000       0.84808820       0.11684860
    27  H          0.72560000       0.06220000       0.90111800
    28  H          0.27440000       0.93780000       0.09888200
    29  C          0.84334000       0.22787170       0.96485130
    30  C          0.15666000       0.77212830       0.03514870
    31  H          0.76960000       0.19420000       0.03661800
    32  H          0.23040000       0.80580000       0.96338200
    33  N         -0.02126000       0.43551140       0.01815110
    34  N          0.02126000       0.56448860       0.98184890
