data_NAWRUC
_symmetry_space_group_name_H-M    'P1'
_symmetry_Int_Tables_number       1
loop_
_symmetry_equiv_pos_site_id
_symmetry_equiv_pos_as_xyz
1 x,y,z
_cell_length_a                   5.27694
_cell_length_b                   12.10608
_cell_length_c                   9.87477
_cell_angle_alpha                90.0
_cell_angle_beta                 91.8612
_cell_angle_gamma                90.0
loop_
_atom_site_label
_atom_site_type_symbol
_atom_site_fract_x
_atom_site_fract_y
_atom_site_fract_z
     1  I          0.18380200       0.03901200       0.22317200
     2  I          0.81619800       0.53901200       0.77682800
     3  O          0.84403000       0.62183150       0.18932000
     4  O          0.15597000       0.12183150       0.81068000
     5  H          0.76540000       0.57430000       0.22030000
     6  H          0.23460000       0.07430000       0.77970000
     7  O          0.47323000       0.66626140       0.08932190
     8  O          0.52677000       0.16626140       0.91067810
     9  C          0.69644000       0.68389170       0.11172000
    10  C          0.30356000       0.18389170       0.88828000
    11  C          0.83624000       0.78005180       0.05283000
    12  C          0.16376000       0.28005180       0.94717000
    13  H          0.94381400       0.81487600       0.12485500
    14  H          0.05618600       0.31487600       0.87514500
    15  H          0.94873600       0.75280700       0.98182700
    16  H          0.05126400       0.25280700       0.01817300
    17  C          0.65844000       0.86520180      -0.00753000
    18  C          0.34156000       0.36520180       0.00753000
    19  H          0.54634200       0.83019600       0.92253100
    20  H          0.45365800       0.33019600       0.07746900
    21  H          0.55059300       0.89513600       0.06401100
    22  H          0.44940700       0.39513600       0.93598900
    23  N          0.80293000       0.95709140       0.93032810
    24  N          0.19707000       0.45709140       0.06967190
    25  H          0.89139900       0.93053400       0.85975100
    26  H          0.10860100       0.43053400       0.14024900
    27  H          0.91255300       0.98666100      -0.00652400
    28  H          0.08744700       0.48666100       0.00652400
    29  H          0.69300300       0.01013400       0.89984300
    30  H          0.30699700       0.51013400       0.10015700
    31  O          0.60063000       0.46973140       0.30298190
    32  O          0.39937000       0.96973140       0.69701810
    33  O          0.91854000       0.35150140       0.27072000
    34  O          0.08146000       0.85150140       0.72928000
    35  C          0.70724000       0.37729170       0.31312000
    36  C          0.29276000       0.87729170       0.68688000
    37  C          0.55004000       0.28791170       0.38102000
    38  C          0.44996000       0.78791170       0.61898000
    39  H          0.38029800       0.28108200       0.33367500
    40  H          0.61970200       0.78108200       0.66632500
    41  C          0.51775000       0.30682000       0.53302000
    42  C          0.48225000       0.80682000       0.46698000
    43  H          0.51734000       0.38661400       0.55465000
    44  H          0.48266000       0.88661400       0.44535000
    45  H          0.35783000       0.27342900       0.56327200
    46  H          0.64217000       0.77342900       0.43672800
    47  C          0.76386000       0.14392000       0.51673000
    48  C          0.23614000       0.64392000       0.48327000
    49  H          0.93843300       0.11387500       0.52118800
    50  H          0.06156700       0.61387500       0.47881200
    51  H          0.64559400       0.08711800       0.54965100
    52  H          0.35440600       0.58711800       0.45034900
    53  C          0.74585000       0.24992000       0.59873000
    54  C          0.25415000       0.74992000       0.40127000
    55  H          0.71824400       0.23391700       0.69546300
    56  H          0.28175600       0.73391700       0.30453700
    57  H          0.90079900       0.29527200       0.59122900
    58  H          0.09920100       0.79527200       0.40877100
    59  N          0.69014000       0.17993150       0.37502000
    60  N          0.30986000       0.67993150       0.62498000
    61  H          0.83129900       0.18805100       0.32545400
    62  H          0.16870100       0.68805100       0.67454600
    63  H          0.58941400       0.12781700       0.33425200
    64  H          0.41058600       0.62781700       0.66574800
