data_NAYBUO
_symmetry_space_group_name_H-M    'P1'
_symmetry_Int_Tables_number       1
loop_
_symmetry_equiv_pos_site_id
_symmetry_equiv_pos_as_xyz
1 x,y,z
_cell_length_a                   6.06289
_cell_length_b                   9.705311
_cell_length_c                   10.9942
_cell_angle_alpha                99.53512
_cell_angle_beta                 94.61214
_cell_angle_gamma                91.07111
loop_
_atom_site_label
_atom_site_type_symbol
_atom_site_fract_x
_atom_site_fract_y
_atom_site_fract_z
     1  O          0.30713000       0.39322000       0.71866190
     2  O          0.32904000       0.25343000       0.52413180
     3  H          0.22370000       0.29750000       0.49240000
     4  O          0.21904000       0.09472000       0.77826180
     5  O          0.46354000       0.22082000       0.92063170
     6  O          0.72384000       0.37063000       0.60132000
     7  H          0.59360000       0.35160000       0.56850000
     8  C          0.25304000       0.26053000       0.64382000
     9  H          0.09273900       0.24177600       0.63711200
    10  C          0.37184000       0.15383000       0.70912000
    11  H          0.44026600       0.08256700       0.65133600
    12  C          0.54254000       0.23713000       0.80472000
    13  H          0.69299500       0.20392000       0.79618500
    14  C          0.52134000       0.38873000       0.78722000
    15  H          0.51735400       0.44694600       0.86882300
    16  C          0.70275000       0.44603000       0.72153000
    17  H          0.67329200       0.54256000       0.71515600
    18  H          0.84226200       0.44485400       0.77097800
    19  C          0.31885000       0.10213000       0.90092000
    20  C          0.13747000       0.12694000      -0.01197000
    21  H          0.02696000       0.05270700       0.96689500
    22  H          0.07086200       0.21448500       0.98085300
    23  H          0.19910400       0.12911400       0.07151600
    24  C          0.44118000       0.97036000       0.91344000
    25  H          0.55468600       0.95917300       0.85683800
    26  H          0.33929700       0.89137700       0.89470500
    27  H          0.50721900       0.97697800      -0.00343400
    28  O          0.59293000       0.46925180       0.29363180
    29  O          0.96083000       0.68754190       0.21268160
    30  O          0.84623000       0.49790190       0.07295150
    31  O          0.95264000       0.31633000       0.39911190
    32  H          0.87770000       0.35050000       0.46140000
    33  O          0.52895000       0.92962000       0.24832000
    34  O          0.22486000       0.03143000       0.28153000
    35  O          0.80286000       0.96613000       0.60783000
    36  O          0.87575000       0.80263000       0.71463000
    37  N          0.62994000       0.71102000       0.35250190
    38  H          0.65950000       0.75630000       0.30130000
    39  N          0.36055000       0.94742000       0.30392000
    40  N          0.91286000       0.86903000       0.63353000
    41  C          0.73894000       0.58212000       0.35342000
    42  H          0.78036200       0.57029500       0.43893700
    43  C          0.94724000       0.57623000       0.28062000
    44  H          0.08240100       0.57155800       0.33481800
    45  C          0.90944000       0.44402000       0.18302000
    46  H          0.04239300       0.38832500       0.17550200
    47  C          0.71864000       0.36463000       0.22262000
    48  H          0.62639400       0.31882700       0.14924500
    49  C          0.79695000       0.25573000       0.29983000
    50  H          0.67081900       0.21641600       0.33275200
    51  H          0.86495400       0.18058100       0.24769900
    52  C          0.95954000       0.62923000       0.08382000
    53  C          0.19636000       0.61204000       0.04874000
    54  H          0.27525600       0.55858600       0.10310100
    55  H          0.26796400       0.70238400       0.05589500
    56  H          0.19520500       0.56416800       0.96487400
    57  C          0.82806000       0.72224000       0.01133000
    58  H          0.88348200       0.81692700       0.03532200
    59  H          0.67519300       0.71673700       0.02777400
    60  H          0.84102300       0.69252900       0.92456300
    61  C          0.45744000       0.75162000       0.41962000
    62  C          0.32584000       0.86612000       0.40072000
    63  C          0.14664000       0.90293000       0.46972000
    64  H          0.05936700       0.97684500       0.45400800
    65  C          0.10094000       0.82943000       0.56042000
    66  C          0.22564000       0.71703000       0.58462000
    67  H          0.19311600       0.66901300       0.64777900
    68  C          0.39814000       0.67763000       0.51372000
    69  H          0.47816200       0.60025300       0.52799700
