data_NEBWIC
_symmetry_space_group_name_H-M    'P1'
_symmetry_Int_Tables_number       1
loop_
_symmetry_equiv_pos_site_id
_symmetry_equiv_pos_as_xyz
1 x,y,z
_cell_length_a                   29.687511
_cell_length_b                   4.69372
_cell_length_c                   14.22926
_cell_angle_alpha                90.0
_cell_angle_beta                 90.0
_cell_angle_gamma                90.0
loop_
_atom_site_label
_atom_site_type_symbol
_atom_site_fract_x
_atom_site_fract_y
_atom_site_fract_z
     1  O          0.28877160       0.40121100       0.47424000
     2  O          0.71122840       0.59878900       0.97424000
     3  O          0.21122840       0.40121100       0.97424000
     4  O          0.78877160       0.59878900       0.47424000
     5  H          0.27000000       0.27360000       0.47060000
     6  H          0.73000000       0.72640000       0.97060000
     7  H          0.23000000       0.27360000       0.97060000
     8  H          0.77000000       0.72640000       0.47060000
     9  O          0.45869170       0.44501200       0.26144000
    10  O          0.54130830       0.55498800       0.76144000
    11  O          0.04130830       0.44501200       0.76144000
    12  O          0.95869170       0.55498800       0.26144000
    13  H          0.47860000       0.32370000       0.26230000
    14  H          0.52140000       0.67630000       0.76230000
    15  H          0.02140000       0.32370000       0.76230000
    16  H          0.97860000       0.67630000       0.26230000
    17  C          0.45733000       0.57661500       0.34367000
    18  C          0.54267000       0.42338500       0.84367000
    19  C          0.04267000       0.57661500       0.84367000
    20  C          0.95733000       0.42338500       0.34367000
    21  O          0.48681190       0.55391400       0.40075000
    22  O          0.51318810       0.44608600       0.90075000
    23  O          0.01318810       0.55391400       0.90075000
    24  O          0.98681190       0.44608600       0.40075000
    25  C          0.33112000       0.72951300       0.38355000
    26  C          0.66888000       0.27048700       0.88355000
    27  C          0.16888000       0.72951300       0.88355000
    28  C          0.83112000       0.27048700       0.38355000
    29  H          0.33420000       0.84380000       0.43990000
    30  H          0.66580000       0.15620000       0.93990000
    31  H          0.16580000       0.84380000       0.93990000
    32  H          0.83420000       0.15620000       0.43990000
    33  H          0.32600000       0.85730000       0.33100000
    34  H          0.67400000       0.14270000       0.83100000
    35  H          0.17400000       0.85730000       0.83100000
    36  H          0.82600000       0.14270000       0.33100000
    37  O          0.26400190       0.49631300       0.33205000
    38  O          0.73599810       0.50368700       0.83205000
    39  O          0.23599810       0.49631300       0.83205000
    40  O          0.76400190       0.50368700       0.33205000
    41  C          0.37383000       0.56061300       0.36728000
    42  C          0.62617000       0.43938700       0.86728000
    43  C          0.12617000       0.56061300       0.86728000
    44  C          0.87383000       0.43938700       0.36728000
    45  H          0.37050000       0.45010000       0.31000000
    46  H          0.62950000       0.54990000       0.81000000
    47  H          0.12950000       0.45010000       0.81000000
    48  H          0.87050000       0.54990000       0.31000000
    49  H          0.37790000       0.42810000       0.41880000
    50  H          0.62210000       0.57190000       0.91880000
    51  H          0.12210000       0.42810000       0.91880000
    52  H          0.87790000       0.57190000       0.41880000
    53  C          0.41552000       0.74851300       0.35916000
    54  C          0.58448000       0.25148700       0.85916000
    55  C          0.08448000       0.74851300       0.85916000
    56  C          0.91552000       0.25148700       0.35916000
    57  H          0.41160000       0.88000000       0.30710000
    58  H          0.58840000       0.12000000       0.80710000
    59  H          0.08840000       0.88000000       0.80710000
    60  H          0.91160000       0.12000000       0.30710000
    61  H          0.41880000       0.85970000       0.41610000
    62  H          0.58120000       0.14030000       0.91610000
    63  H          0.08120000       0.85970000       0.91610000
    64  H          0.91880000       0.14030000       0.41610000
    65  C          0.29142000       0.53291400       0.39396000
    66  C          0.70858000       0.46708600       0.89396000
    67  C          0.20858000       0.53291400       0.89396000
    68  C          0.79142000       0.46708600       0.39396000
    69  N          0.52549170       0.10061100       0.22444000
    70  N          0.47450830       0.89938900       0.72444000
    71  N          0.97450830       0.10061100       0.72444000
    72  N          0.02549170       0.89938900       0.22444000
    73  N          0.59675170       0.88238900       0.25604000
    74  N          0.40324830       0.11761100       0.75604000
    75  N          0.90324830       0.88238900       0.75604000
    76  N          0.09675170       0.11761100       0.25604000
    77  N          0.56709170       0.21191200       0.35434000
    78  N          0.43290830       0.78808800       0.85434000
    79  N          0.93290830       0.21191200       0.85434000
    80  N          0.06709170       0.78808800       0.35434000
    81  H          0.59050000       0.19270000       0.38940000
    82  H          0.40950000       0.80730000       0.88940000
    83  H          0.90950000       0.19270000       0.88940000
    84  H          0.09050000       0.80730000       0.38940000
    85  H          0.54620000       0.32950000       0.36990000
    86  H          0.45380000       0.67050000       0.86990000
    87  H          0.95380000       0.32950000       0.86990000
    88  H          0.04620000       0.67050000       0.36990000
    89  C          0.59232000       0.73498700       0.17735000
    90  C          0.40768000       0.26501300       0.67735000
    91  C          0.90768000       0.73498700       0.67735000
    92  C          0.09232000       0.26501300       0.17735000
    93  C          0.48133000       0.00141800       0.08567000
    94  C          0.51867000      -0.00141800       0.58567000
    95  C          0.01867000       0.00141800       0.58567000
    96  C          0.98133000      -0.00141800       0.08567000
    97  H          0.45470000      -0.02280000       0.12310000
    98  H          0.54530000       0.02280000       0.62310000
    99  H          0.04530000      -0.02280000       0.62310000
   100  H          0.95470000       0.02280000       0.12310000
   101  H          0.48090000       0.86830000       0.03440000
   102  H          0.51910000       0.13170000       0.53440000
   103  H          0.01910000       0.86830000       0.53440000
   104  H          0.98090000       0.13170000       0.03440000
   105  H          0.48220000       0.19210000       0.06130000
   106  H          0.51780000       0.80790000       0.56130000
   107  H          0.01780000       0.19210000       0.56130000
   108  H          0.98220000       0.80790000       0.06130000
   109  C          0.52202000       0.94928500       0.14496000
   110  C          0.47798000       0.05071500       0.64496000
   111  C          0.97798000       0.94928500       0.64496000
   112  C          0.02202000       0.05071500       0.14496000
   113  C          0.55472000       0.76558600       0.11825000
   114  C          0.44528000       0.23441400       0.61825000
   115  C          0.94528000       0.76558600       0.61825000
   116  C          0.05472000       0.23441400       0.11825000
   117  H          0.55240000       0.66290000       0.06250000
   118  H          0.44760000       0.33710000       0.56250000
   119  H          0.94760000       0.66290000       0.56250000
   120  H          0.05240000       0.33710000       0.06250000
   121  C          0.56332000       0.06101300       0.27655000
   122  C          0.43668000       0.93898700       0.77655000
   123  C          0.93668000       0.06101300       0.77655000
   124  C          0.06332000       0.93898700       0.27655000
   125  C          0.62872000       0.52598300       0.15527000
   126  C          0.37128000       0.47401700       0.65527000
   127  C          0.87128000       0.52598300       0.65527000
   128  C          0.12872000       0.47401700       0.15527000
   129  H          0.64970000       0.61050000       0.11200000
   130  H          0.35030000       0.38950000       0.61200000
   131  H          0.85030000       0.61050000       0.61200000
   132  H          0.14970000       0.38950000       0.11200000
   133  H          0.61570000       0.35880000       0.12730000
   134  H          0.38430000       0.64120000       0.62730000
   135  H          0.88430000       0.35880000       0.62730000
   136  H          0.11570000       0.64120000       0.12730000
   137  H          0.64410000       0.47440000       0.21200000
   138  H          0.35590000       0.52560000       0.71200000
   139  H          0.85590000       0.47440000       0.71200000
   140  H          0.14410000       0.52560000       0.21200000
   141  N          0.22382000       0.03811100       0.50284000
   142  N          0.77618000       0.96188900       0.00284000
   143  N          0.27618000       0.03811100       0.00284000
   144  N          0.72382000       0.96188900       0.50284000
   145  C          0.26642000       0.95358400       0.64416000
   146  C          0.73358000       0.04641600       0.14416000
   147  C          0.23358000       0.95358400       0.14416000
   148  C          0.76642000       0.04641600       0.64416000
   149  H          0.29290000       0.87340000       0.61580000
   150  H          0.70710000       0.12660000       0.11580000
   151  H          0.20710000       0.87340000       0.11580000
   152  H          0.79290000       0.12660000       0.61580000
   153  H          0.26200000       0.87040000       0.70500000
   154  H          0.73800000       0.12960000       0.20500000
   155  H          0.23800000       0.87040000       0.20500000
   156  H          0.76200000       0.12960000       0.70500000
   157  H          0.27010000       0.15590000       0.65040000
   158  H          0.72990000       0.84410000       0.15040000
   159  H          0.22990000       0.15590000       0.15040000
   160  H          0.77010000       0.84410000       0.65040000
   161  C          0.18762000      -0.00881400       0.44796000
   162  C          0.81238000       0.00881400       0.94796000
   163  C          0.31238000      -0.00881400       0.94796000
   164  C          0.68762000       0.00881400       0.44796000
   165  C          0.22672000       0.89348500       0.58405000
   166  C          0.77328000       0.10651500       0.08405000
   167  C          0.27328000       0.89348500       0.08405000
   168  C          0.72672000       0.10651500       0.58405000
   169  N          0.18423180       0.13471200       0.36874000
   170  N          0.81576820       0.86528800       0.86874000
   171  N          0.31576820       0.13471200       0.86874000
   172  N          0.68423180       0.86528800       0.36874000
   173  H          0.20480000       0.25470000       0.35320000
   174  H          0.79520000       0.74530000       0.85320000
   175  H          0.29520000       0.25470000       0.85320000
   176  H          0.70480000       0.74530000       0.35320000
   177  H          0.16140000       0.10840000       0.33240000
   178  H          0.83860000       0.89160000       0.83240000
   179  H          0.33860000       0.10840000       0.83240000
   180  H          0.66140000       0.89160000       0.33240000
   181  N          0.15388170       0.80818900       0.46844000
   182  N          0.84611830       0.19181100       0.96844000
   183  N          0.34611830       0.80818900       0.96844000
   184  N          0.65388170       0.19181100       0.46844000
   185  C          0.19372000       0.70068600       0.60795000
   186  C          0.80628000       0.29931400       0.10795000
   187  C          0.30628000       0.70068600       0.10795000
   188  C          0.69372000       0.29931400       0.60795000
   189  H          0.19560000       0.59710000       0.66350000
   190  H          0.80440000       0.40290000       0.16350000
   191  H          0.30440000       0.59710000       0.16350000
   192  H          0.69560000       0.40290000       0.66350000
   193  C          0.15802000       0.66508600       0.54785000
   194  C          0.84198000       0.33491400       0.04785000
   195  C          0.34198000       0.66508600       0.04785000
   196  C          0.65802000       0.33491400       0.54785000
   197  C          0.12023000       0.45078400       0.57037000
   198  C          0.87977000       0.54921600       0.07037000
   199  C          0.37977000       0.45078400       0.07037000
   200  C          0.62023000       0.54921600       0.57037000
   201  H          0.09560000       0.54870000       0.59990000
   202  H          0.90440000       0.45130000       0.09990000
   203  H          0.40440000       0.54870000       0.09990000
   204  H          0.59560000       0.45130000       0.59990000
   205  H          0.13150000       0.30650000       0.61190000
   206  H          0.86850000       0.69350000       0.11190000
   207  H          0.36850000       0.30650000       0.11190000
   208  H          0.63150000       0.69350000       0.61190000
   209  H          0.10990000       0.36380000       0.51320000
   210  H          0.89010000       0.63620000       0.01320000
   211  H          0.39010000       0.36380000       0.01320000
   212  H          0.60990000       0.63620000       0.51320000
