data_NECCIL
_symmetry_space_group_name_H-M    'P1'
_symmetry_Int_Tables_number       1
loop_
_symmetry_equiv_pos_site_id
_symmetry_equiv_pos_as_xyz
1 x,y,z
_cell_length_a                   7.8566
_cell_length_b                   8.7695
_cell_length_c                   8.9547
_cell_angle_alpha                92.493
_cell_angle_beta                 110.844
_cell_angle_gamma                104.144
loop_
_atom_site_label
_atom_site_type_symbol
_atom_site_fract_x
_atom_site_fract_y
_atom_site_fract_z
     1  P          0.17198600       0.69750500       0.45667500
     2  P          0.82801400       0.30249500       0.54332500
     3  O          0.34912000       0.83610170       0.54093190
     4  O          0.65088000       0.16389830       0.45906810
     5  O          0.23322000       0.54222170       0.48208180
     6  O          0.76678000       0.45777830       0.51791820
     7  O          0.02112000       0.70066160       0.52052000
     8  O         -0.02112000       0.29933840       0.47948000
     9  O          0.10332000       0.70282160       0.27358170
    10  O          0.89668000       0.29717840       0.72641830
    11  H          0.13880000       0.79670000       0.25690000
    12  H          0.86120000       0.20330000       0.74310000
    13  H          0.15150000       0.46440000       0.47740000
    14  H          0.84850000       0.53560000       0.52260000
    15  H          0.44650000       0.81640000       0.57840000
    16  H          0.55350000       0.18360000       0.42160000
    17  P          0.83920600       0.88719500       0.75732500
    18  P          0.16079400       0.11280500       0.24267500
    19  O          0.82431180       0.03691150       0.83451150
    20  O          0.17568820       0.96308850       0.16548850
    21  O          0.65379190       0.76348150       0.66909160
    22  O          0.34620810       0.23651850       0.33090840
    23  O          0.96103190       0.80300150       0.88737160
    24  O          0.03896810       0.19699850       0.11262840
    25  H          0.03220000       0.86950000       0.96960000
    26  H          0.96780000       0.13050000       0.03040000
    27  O          0.94532000       0.94079170       0.64286180
    28  O          0.05468000       0.05920830       0.35713820
    29  H          0.96450000       0.86640000       0.59740000
    30  H          0.03550000       0.13360000       0.40260000
    31  N          0.60752000       0.48232000       0.80552000
    32  N          0.39248000       0.51768000       0.19448000
    33  C          0.46013000       0.21312000       0.79662000
    34  C          0.53987000       0.78688000       0.20338000
    35  C          0.56883000       0.21932000       0.95942000
    36  C          0.43117000       0.78068000       0.04058000
    37  C          0.69703000       0.36382000       0.04102000
    38  C          0.30297000       0.63618000       0.95898000
    39  C          0.71533000       0.49342000       0.96232000
    40  C          0.28467000       0.50658000       0.03768000
    41  C          0.55433000       0.07972000       0.05102000
    42  C          0.44567000       0.92028000       0.94898000
    43  C          0.48313000       0.34632000       0.72272000
    44  C          0.51687000       0.65368000       0.27728000
    45  H          0.50040000       0.09930000       0.13030000
    46  H          0.49960000       0.90070000       0.86970000
    47  H          0.37330000       0.12130000       0.73630000
    48  H          0.62670000       0.87870000       0.26370000
    49  H          0.80140000       0.59030000       0.00930000
    50  H          0.19860000       0.40970000      -0.00930000
    51  H          0.41930000       0.35230000       0.61530000
    52  H          0.58070000       0.64770000       0.38470000
    53  H          0.68340000       0.07930000       0.11530000
    54  H          0.31660000       0.92070000       0.88470000
    55  H          0.77140000       0.37230000       0.14630000
    56  H          0.22860000       0.62770000       0.85370000
    57  H          0.61940000       0.56240000       0.75630000
    58  H          0.38060000       0.43760000       0.24370000
