data_NECCUX
_symmetry_space_group_name_H-M    'P1'
_symmetry_Int_Tables_number       1
loop_
_symmetry_equiv_pos_site_id
_symmetry_equiv_pos_as_xyz
1 x,y,z
_cell_length_a                   7.97122
_cell_length_b                   16.13455
_cell_length_c                   7.53342
_cell_angle_alpha                90.0
_cell_angle_beta                 116.39501
_cell_angle_gamma                90.0
loop_
_atom_site_label
_atom_site_type_symbol
_atom_site_fract_x
_atom_site_fract_y
_atom_site_fract_z
     1  P          0.19247600       0.32392300       0.91262700
     2  P          0.80752400       0.82392300       0.58737300
     3  P          0.80752400       0.67607700       0.08737300
     4  P          0.19247600       0.17607700       0.41262700
     5  O          0.00551180       0.32659800       0.72932000
     6  O         -0.00551180       0.82659800       0.77068000
     7  O         -0.00551180       0.67340200       0.27068000
     8  O          0.00551180       0.17340200       0.22932000
     9  O          0.18039190       0.34224800       0.10262000
    10  O          0.81960810       0.84224800       0.39738000
    11  O          0.81960810       0.65775200       0.89738000
    12  O          0.18039190       0.15775200       0.60262000
    13  O          0.28132000       0.23604800       0.93362000
    14  O          0.71868000       0.73604800       0.56638000
    15  O          0.71868000       0.76395200       0.06638000
    16  O          0.28132000       0.26395200       0.43362000
    17  H          0.25730000       0.21760000       0.82200000
    18  H          0.74270000       0.71760000       0.67800000
    19  H          0.74270000       0.78240000       0.17800000
    20  H          0.25730000       0.28240000       0.32200000
    21  O          0.31998190       0.38810900       0.87622000
    22  O          0.68001810       0.88810900       0.62378000
    23  O          0.68001810       0.61189100       0.12378000
    24  O          0.31998190       0.11189100       0.37622000
    25  H          0.41220000       0.39870000      -0.01730000
    26  H          0.58780000       0.89870000       0.51730000
    27  H          0.58780000       0.60130000       0.01730000
    28  H          0.41220000       0.10130000       0.48270000
    29  P          0.80122600       0.37610300       0.21892700
    30  P          0.19877400       0.87610300       0.28107300
    31  P          0.19877400       0.62389700       0.78107300
    32  P          0.80122600       0.12389700       0.71892700
    33  O          0.97282190       0.39562900       0.41842000
    34  O          0.02717810       0.89562900       0.08158000
    35  O          0.02717810       0.60437100       0.58158000
    36  O          0.97282190       0.10437100       0.91842000
    37  H          0.96650000       0.36800000       0.50810000
    38  H          0.03350000       0.86800000      -0.00810000
    39  H          0.03350000       0.63200000       0.49190000
    40  H          0.96650000       0.13200000       0.00810000
    41  O          0.75762000       0.28251900       0.20793000
    42  O          0.24238000       0.78251900       0.29207000
    43  O          0.24238000       0.71748100       0.79207000
    44  O          0.75762000       0.21748100       0.70793000
    45  H          0.84970000       0.25580000       0.21580000
    46  H          0.15030000       0.75580000       0.28420000
    47  H          0.15030000       0.74420000       0.78420000
    48  H          0.84970000       0.24420000       0.71580000
    49  O          0.62953180       0.42259800       0.19022000
    50  O          0.37046820       0.92259800       0.30978000
    51  O          0.37046820       0.57740200       0.80978000
    52  O          0.62953180       0.07740200       0.69022000
    53  O          0.86182000       0.40130110       0.05792000
    54  O          0.13818000       0.90130110       0.44208000
    55  O          0.13818000       0.59869890       0.94208000
    56  O          0.86182000       0.09869890       0.55792000
    57  H          0.96680000       0.38170000       0.08570000
    58  H          0.03320000       0.88170000       0.41430000
    59  H          0.03320000       0.61830000       0.91430000
    60  H          0.96680000       0.11830000       0.58570000
    61  N          0.35682000       0.04059100       0.03292000
    62  N          0.64318000       0.54059100       0.46708000
    63  N          0.64318000       0.95940900       0.96708000
    64  N          0.35682000       0.45940900       0.53292000
    65  H          0.26830000       0.07990000       0.00260000
    66  H          0.73170000       0.57990000       0.49740000
    67  H          0.73170000       0.92010000      -0.00260000
    68  H          0.26830000       0.42010000       0.50260000
    69  H          0.35920000       0.01080000       0.13500000
    70  H          0.64080000       0.51080000       0.36500000
    71  H          0.64080000       0.98920000       0.86500000
    72  H          0.35920000       0.48920000       0.63500000
    73  C          0.54283000       0.08078110       0.09293000
    74  C          0.45717000       0.58078110       0.40707000
    75  C          0.45717000       0.91921890       0.90707000
    76  C          0.54283000       0.41921890       0.59293000
    77  H          0.57260000       0.11620000       0.20880000
    78  H          0.42740000       0.61620000       0.29120000
    79  H          0.42740000       0.88380000       0.79120000
    80  H          0.57260000       0.38380000       0.70880000
    81  H          0.53900000       0.11560000      -0.01540000
    82  H          0.46100000       0.61560000       0.51540000
    83  H          0.46100000       0.88440000       0.01540000
    84  H          0.53900000       0.38440000       0.48460000
    85  C          0.69203000       0.01506120       0.14233000
    86  C          0.30797000       0.51506120       0.35767000
    87  C          0.30797000       0.98493880       0.85767000
    88  C          0.69203000       0.48493880       0.64233000
    89  H          0.81360000       0.04140000       0.17780000
    90  H          0.18640000       0.54140000       0.32220000
    91  H          0.18640000       0.95860000       0.82220000
    92  H          0.81360000       0.45860000       0.67780000
    93  H          0.70140000       0.98240000       0.25610000
    94  H          0.29860000       0.48240000       0.24390000
    95  H          0.29860000       0.01760000       0.74390000
    96  H          0.70140000       0.51760000       0.75610000
