data_NEDRET
_symmetry_space_group_name_H-M    'P1'
_symmetry_Int_Tables_number       1
loop_
_symmetry_equiv_pos_site_id
_symmetry_equiv_pos_as_xyz
1 x,y,z
_cell_length_a                   23.4244
_cell_length_b                   9.6894
_cell_length_c                   14.4703
_cell_angle_alpha                90.0
_cell_angle_beta                 90.532
_cell_angle_gamma                90.0
loop_
_atom_site_label
_atom_site_type_symbol
_atom_site_fract_x
_atom_site_fract_y
_atom_site_fract_z
     1  Br         0.64624400       0.50000000       0.45850700
     2  Br         0.14624400       0.00000000       0.45850700
     3  Br         0.35375600       0.50000000       0.54149300
     4  Br         0.85375600       0.00000000       0.54149300
     5  Br         0.14852400       0.00000000       0.04282600
     6  Br         0.64852400       0.50000000       0.04282600
     7  Br         0.85147600       0.00000000       0.95717400
     8  Br         0.35147600       0.50000000       0.95717400
     9  S          0.55375500       0.85051000       0.37034900
    10  S          0.05375500       0.35051000       0.37034900
    11  S          0.44624500       0.85051000       0.62965100
    12  S          0.94624500       0.35051000       0.62965100
    13  S          0.44624500       0.14949000       0.62965100
    14  S          0.94624500       0.64949000       0.62965100
    15  S          0.55375500       0.14949000       0.37034900
    16  S          0.05375500       0.64949000       0.37034900
    17  S          0.41656500       0.85081000       0.39712900
    18  S          0.91656500       0.35081000       0.39712900
    19  S          0.58343500       0.85081000       0.60287100
    20  S          0.08343500       0.35081000       0.60287100
    21  S          0.58343500       0.14919000       0.60287100
    22  S          0.08343500       0.64919000       0.60287100
    23  S          0.41656500       0.14919000       0.39712900
    24  S          0.91656500       0.64919000       0.39712900
    25  C          0.51473000       0.00000000       0.37745000
    26  C          0.01473000       0.50000000       0.37745000
    27  C          0.48527000       0.00000000       0.62255000
    28  C          0.98527000       0.50000000       0.62255000
    29  C          0.61942000       0.93195000       0.35433000
    30  C          0.11942000       0.43195000       0.35433000
    31  C          0.38058000       0.93195000       0.64567000
    32  C          0.88058000       0.43195000       0.64567000
    33  C          0.38058000       0.06805000       0.64567000
    34  C          0.88058000       0.56805000       0.64567000
    35  C          0.61942000       0.06805000       0.35433000
    36  C          0.11942000       0.56805000       0.35433000
    37  C          0.66932000       0.83557000       0.34184000
    38  C          0.16932000       0.33557000       0.34184000
    39  C          0.33068000       0.83557000       0.65816000
    40  C          0.83068000       0.33557000       0.65816000
    41  C          0.33068000       0.16443000       0.65816000
    42  C          0.83068000       0.66443000       0.65816000
    43  C          0.66932000       0.16443000       0.34184000
    44  C          0.16932000       0.66443000       0.34184000
    45  C          0.45563000       0.00000000       0.38765000
    46  C          0.95563000       0.50000000       0.38765000
    47  C          0.54437000       0.00000000       0.61235000
    48  C          0.04437000       0.50000000       0.61235000
    49  C          0.35042000       0.93025000       0.40493000
    50  C          0.85042000       0.43025000       0.40493000
    51  C          0.64958000       0.93025000       0.59507000
    52  C          0.14958000       0.43025000       0.59507000
    53  C          0.64958000       0.06975000       0.59507000
    54  C          0.14958000       0.56975000       0.59507000
    55  C          0.35042000       0.06975000       0.40493000
    56  C          0.85042000       0.56975000       0.40493000
    57  C          0.29902000       0.83906000       0.40834000
    58  C          0.79902000       0.33906000       0.40834000
    59  C          0.70098000       0.83906000       0.59166000
    60  C          0.20098000       0.33906000       0.59166000
    61  C          0.70098000       0.16094000       0.59166000
    62  C          0.20098000       0.66094000       0.59166000
    63  C          0.29902000       0.16094000       0.40834000
    64  C          0.79902000       0.66094000       0.40834000
    65  H          0.66820000       0.79270000       0.27790000
    66  H          0.16820000       0.29270000       0.27790000
    67  H          0.33180000       0.79270000       0.72210000
    68  H          0.83180000       0.29270000       0.72210000
    69  H          0.33180000       0.20730000       0.72210000
    70  H          0.83180000       0.70730000       0.72210000
    71  H          0.66820000       0.20730000       0.27790000
    72  H          0.16820000       0.70730000       0.27790000
    73  H          0.67510000       0.76880000       0.38700000
    74  H          0.17510000       0.26880000       0.38700000
    75  H          0.32490000       0.76880000       0.61300000
    76  H          0.82490000       0.26880000       0.61300000
    77  H          0.32490000       0.23120000       0.61300000
    78  H          0.82490000       0.73120000       0.61300000
    79  H          0.67510000       0.23120000       0.38700000
    80  H          0.17510000       0.73120000       0.38700000
    81  H          0.70070000       0.87430000       0.34120000
    82  H          0.20070000       0.37430000       0.34120000
    83  H          0.29930000       0.87430000       0.65880000
    84  H          0.79930000       0.37430000       0.65880000
    85  H          0.29930000       0.12570000       0.65880000
    86  H          0.79930000       0.62570000       0.65880000
    87  H          0.70070000       0.12570000       0.34120000
    88  H          0.20070000       0.62570000       0.34120000
    89  H          0.27870000       0.82740000       0.34050000
    90  H          0.77870000       0.32740000       0.34050000
    91  H          0.72130000       0.82740000       0.65950000
    92  H          0.22130000       0.32740000       0.65950000
    93  H          0.72130000       0.17260000       0.65950000
    94  H          0.22130000       0.67260000       0.65950000
    95  H          0.27870000       0.17260000       0.34050000
    96  H          0.77870000       0.67260000       0.34050000
    97  H          0.30860000       0.76260000       0.43710000
    98  H          0.80860000       0.26260000       0.43710000
    99  H          0.69140000       0.76260000       0.56290000
   100  H          0.19140000       0.26260000       0.56290000
   101  H          0.69140000       0.23740000       0.56290000
   102  H          0.19140000       0.73740000       0.56290000
   103  H          0.30860000       0.23740000       0.43710000
   104  H          0.80860000       0.73740000       0.43710000
   105  H          0.26960000       0.87980000       0.45480000
   106  H          0.76960000       0.37980000       0.45480000
   107  H          0.73040000       0.87980000       0.54520000
   108  H          0.23040000       0.37980000       0.54520000
   109  H          0.73040000       0.12020000       0.54520000
   110  H          0.23040000       0.62020000       0.54520000
   111  H          0.26960000       0.12020000       0.45480000
   112  H          0.76960000       0.62020000       0.45480000
   113  S          0.54319500       0.14951000       0.87496900
   114  S          0.04319500       0.64951000       0.87496900
   115  S          0.45680500       0.14951000       0.12503100
   116  S          0.95680500       0.64951000       0.12503100
   117  S          0.45680500       0.85049000       0.12503100
   118  S          0.95680500       0.35049000       0.12503100
   119  S          0.54319500       0.85049000       0.87496900
   120  S          0.04319500       0.35049000       0.87496900
   121  S          0.40603500       0.15031000       0.89619900
   122  S          0.90603500       0.65031000       0.89619900
   123  S          0.59396500       0.15031000       0.10380100
   124  S          0.09396500       0.65031000       0.10380100
   125  S          0.59396500       0.84969000       0.10380100
   126  S          0.09396500       0.34969000       0.10380100
   127  S          0.40603500       0.84969000       0.89619900
   128  S          0.90603500       0.34969000       0.89619900
   129  C          0.50463000       0.00000000       0.88125000
   130  C          0.00463000       0.50000000       0.88125000
   131  C          0.49537000      -0.00000000       0.11875000
   132  C         -0.00463000       0.50000000       0.11875000
   133  C          0.60962000       0.07035000       0.86183000
   134  C          0.10962000       0.57035000       0.86183000
   135  C          0.39038000       0.07035000       0.13817000
   136  C          0.89038000       0.57035000       0.13817000
   137  C          0.39038000       0.92965000       0.13817000
   138  C          0.89038000       0.42965000       0.13817000
   139  C          0.60962000       0.92965000       0.86183000
   140  C          0.10962000       0.42965000       0.86183000
   141  C          0.65982000       0.16356000       0.85334000
   142  C          0.15982000       0.66356000       0.85334000
   143  C          0.34018000       0.16356000       0.14666000
   144  C          0.84018000       0.66356000       0.14666000
   145  C          0.34018000       0.83644000       0.14666000
   146  C          0.84018000       0.33644000       0.14666000
   147  C          0.65982000       0.83644000       0.85334000
   148  C          0.15982000       0.33644000       0.85334000
   149  C          0.44453000       0.00000000       0.88995000
   150  C          0.94453000       0.50000000       0.88995000
   151  C          0.55547000      -0.00000000       0.11005000
   152  C          0.05547000       0.50000000       0.11005000
   153  C          0.33972000       0.06915000       0.90223000
   154  C          0.83972000       0.56915000       0.90223000
   155  C          0.66028000       0.06915000       0.09777000
   156  C          0.16028000       0.56915000       0.09777000
   157  C          0.66028000       0.93085000       0.09777000
   158  C          0.16028000       0.43085000       0.09777000
   159  C          0.33972000       0.93085000       0.90223000
   160  C          0.83972000       0.43085000       0.90223000
   161  C          0.28742000       0.15765000       0.90484000
   162  C          0.78742000       0.65765000       0.90484000
   163  C          0.71258000       0.15765000       0.09516000
   164  C          0.21258000       0.65765000       0.09516000
   165  C          0.71258000       0.84235000       0.09516000
   166  C          0.21258000       0.34235000       0.09516000
   167  C          0.28742000       0.84235000       0.90484000
   168  C          0.78742000       0.34235000       0.90484000
   169  H          0.66280000       0.20070000       0.79630000
   170  H          0.16280000       0.70070000       0.79630000
   171  H          0.33720000       0.20070000       0.20370000
   172  H          0.83720000       0.70070000       0.20370000
   173  H          0.33720000       0.79930000       0.20370000
   174  H          0.83720000       0.29930000       0.20370000
   175  H          0.66280000       0.79930000       0.79630000
   176  H          0.16280000       0.29930000       0.79630000
   177  H          0.69260000       0.11490000       0.87010000
   178  H          0.19260000       0.61490000       0.87010000
   179  H          0.30740000       0.11490000       0.12990000
   180  H          0.80740000       0.61490000       0.12990000
   181  H          0.30740000       0.88510000       0.12990000
   182  H          0.80740000       0.38510000       0.12990000
   183  H          0.69260000       0.88510000       0.87010000
   184  H          0.19260000       0.38510000       0.87010000
   185  H          0.65810000       0.25170000       0.90240000
   186  H          0.15810000       0.75170000       0.90240000
   187  H          0.34190000       0.25170000       0.09760000
   188  H          0.84190000       0.75170000       0.09760000
   189  H          0.34190000       0.74830000       0.09760000
   190  H          0.84190000       0.24830000       0.09760000
   191  H          0.65810000       0.74830000       0.90240000
   192  H          0.15810000       0.24830000       0.90240000
   193  H          0.26690000       0.16080000       0.84810000
   194  H          0.76690000       0.66080000       0.84810000
   195  H          0.73310000       0.16080000       0.15190000
   196  H          0.23310000       0.66080000       0.15190000
   197  H          0.73310000       0.83920000       0.15190000
   198  H          0.23310000       0.33920000       0.15190000
   199  H          0.26690000       0.83920000       0.84810000
   200  H          0.76690000       0.33920000       0.84810000
   201  H          0.29550000       0.25540000       0.91030000
   202  H          0.79550000       0.75540000       0.91030000
   203  H          0.70450000       0.25540000       0.08970000
   204  H          0.20450000       0.75540000       0.08970000
   205  H          0.70450000       0.74460000       0.08970000
   206  H          0.20450000       0.24460000       0.08970000
   207  H          0.29550000       0.74460000       0.91030000
   208  H          0.79550000       0.24460000       0.91030000
   209  H          0.26250000       0.14550000       0.95610000
   210  H          0.76250000       0.64550000       0.95610000
   211  H          0.73750000       0.14550000       0.04390000
   212  H          0.23750000       0.64550000       0.04390000
   213  H          0.73750000       0.85450000       0.04390000
   214  H          0.23750000       0.35450000       0.04390000
   215  H          0.26250000       0.85450000       0.95610000
   216  H          0.76250000       0.35450000       0.95610000
   217  O          0.21573000       0.00000000       0.24634000
   218  O          0.71573000       0.50000000       0.24634000
   219  O          0.78427000       0.00000000       0.75366000
   220  O          0.28427000       0.50000000       0.75366000
   221  H          0.18660000       0.00000000       0.30960000
   222  H          0.68660000       0.50000000       0.30960000
   223  H          0.81340000       0.00000000       0.69040000
   224  H          0.31340000       0.50000000       0.69040000
   225  H          0.18330000       0.00000000       0.18760000
   226  H          0.68330000       0.50000000       0.18760000
   227  H          0.81670000       0.00000000       0.81240000
   228  H          0.31670000       0.50000000       0.81240000
   229  N          0.19333000       0.00000000       0.73196000
   230  N          0.69333000       0.50000000       0.73196000
   231  N          0.80667000      -0.00000000       0.26804000
   232  N          0.30667000       0.50000000       0.26804000
   233  C          0.05894000       0.00000000       0.82966000
   234  C          0.55894000       0.50000000       0.82966000
   235  C          0.94106000      -0.00000000       0.17034000
   236  C          0.44106000       0.50000000       0.17034000
   237  C         -0.00074000       0.00000000       0.83757000
   238  C          0.49926000       0.50000000       0.83757000
   239  C          0.00074000      -0.00000000       0.16243000
   240  C          0.50074000       0.50000000       0.16243000
   241  C          0.96716000       0.00000000       0.75799000
   242  C          0.46716000       0.50000000       0.75799000
   243  C          0.03284000      -0.00000000       0.24201000
   244  C          0.53284000       0.50000000       0.24201000
   245  C          0.99196000       0.00000000       0.67077000
   246  C          0.49196000       0.50000000       0.67077000
   247  C          0.00804000      -0.00000000       0.32923000
   248  C          0.50804000       0.50000000       0.32923000
   249  C          0.04963000       0.00000000       0.66376000
   250  C          0.54963000       0.50000000       0.66376000
   251  C          0.95037000      -0.00000000       0.33624000
   252  C          0.45037000       0.50000000       0.33624000
   253  C          0.08313000       0.00000000       0.74396000
   254  C          0.58313000       0.50000000       0.74396000
   255  C          0.91687000      -0.00000000       0.25604000
   256  C          0.41687000       0.50000000       0.25604000
   257  C          0.14434000       0.00000000       0.73586000
   258  C          0.64434000       0.50000000       0.73586000
   259  C          0.85566000      -0.00000000       0.26414000
   260  C          0.35566000       0.50000000       0.26414000
   261  H          0.08320000       0.00000000       0.89220000
   262  H          0.58320000       0.50000000       0.89220000
   263  H          0.91680000      -0.00000000       0.10780000
   264  H          0.41680000       0.50000000       0.10780000
   265  H          0.98590000       0.00000000       0.91570000
   266  H          0.48590000       0.50000000       0.91570000
   267  H          0.01410000      -0.00000000       0.08430000
   268  H          0.51410000       0.50000000       0.08430000
   269  H          0.91840000       0.00000000       0.75190000
   270  H          0.41840000       0.50000000       0.75190000
   271  H          0.08160000      -0.00000000       0.24810000
   272  H          0.58160000       0.50000000       0.24810000
   273  H          0.97020000       0.00000000       0.62170000
   274  H          0.47020000       0.50000000       0.62170000
   275  H          0.02980000      -0.00000000       0.37830000
   276  H          0.52980000       0.50000000       0.37830000
   277  H          0.06710000       0.00000000       0.60950000
   278  H          0.56710000       0.50000000       0.60950000
   279  H          0.93290000      -0.00000000       0.39050000
   280  H          0.43290000       0.50000000       0.39050000
