data_NEFCEG
_symmetry_space_group_name_H-M    'P1'
_symmetry_Int_Tables_number       1
loop_
_symmetry_equiv_pos_site_id
_symmetry_equiv_pos_as_xyz
1 x,y,z
_cell_length_a                   5.479213
_cell_length_b                   8.5022
_cell_length_c                   9.1412
_cell_angle_alpha                117.3505
_cell_angle_beta                 96.7626
_cell_angle_gamma                93.0755
loop_
_atom_site_label
_atom_site_type_symbol
_atom_site_fract_x
_atom_site_fract_y
_atom_site_fract_z
     1  B          0.11334000       0.33613000       0.40723000
     2  B          0.88666000       0.66387000       0.59277000
     3  B          0.17584000       0.53663000       0.40453000
     4  B          0.82416000       0.46337000       0.59547000
     5  O          0.95422000       0.32302000       0.50832000
     6  O          0.04578000       0.67698000       0.49168000
     7  O          0.20353000       0.18072000       0.31362000
     8  O          0.79647000       0.81928000       0.68638000
     9  O          0.33913000       0.57202000       0.32072000
    10  O          0.66087000       0.42798000       0.67928000
    11  H          0.30943100       0.19926000       0.26202200
    12  H          0.69056900       0.80074000       0.73797800
    13  H          0.41313200       0.48251100       0.27242500
    14  H          0.58686800       0.51748900       0.72757500
    15  N          0.20933000       0.10512000       0.81262000
    16  N          0.79067000       0.89488000       0.18738000
    17  C          0.08754000       0.27013000       0.87633000
    18  C          0.91246000       0.72987000       0.12367000
    19  C          0.33964000       0.07993000       0.67163000
    20  C          0.66036000       0.92007000       0.32837000
    21  H          0.09183000       0.00852000       0.77832000
    22  H          0.90817000      -0.00852000       0.22168000
    23  H          0.32133000       0.10922000       0.89792000
    24  H          0.67867000       0.89078000       0.10208000
    25  H          0.00342600       0.27971200       0.96841400
    26  H         -0.00342600       0.72028800       0.03158600
    27  H          0.96602200       0.26581000       0.78646000
    28  H          0.03397800       0.73419000       0.21354000
    29  H          0.21236000       0.37383000       0.91621900
    30  H          0.78764000       0.62617000       0.08378100
    31  H          0.40852400       0.96589000       0.63021200
    32  H          0.59147600       0.03411000       0.36978800
    33  H          0.47391800       0.17751100       0.70965000
    34  H          0.52608200       0.82248900       0.29035000
    35  H          0.22267000       0.07952000       0.58168000
    36  H          0.77733000       0.92048000       0.41832000
    37  Cl         0.38178900       0.75098700       0.86579600
    38  Cl         0.61821100       0.24901300       0.13420400
