data_NEFCEG01
_symmetry_space_group_name_H-M    'P1'
_symmetry_Int_Tables_number       1
loop_
_symmetry_equiv_pos_site_id
_symmetry_equiv_pos_as_xyz
1 x,y,z
_cell_length_a                   5.91936
_cell_length_b                   8.14999
_cell_length_c                   8.44169
_cell_angle_alpha                110.7552
_cell_angle_beta                 99.0732
_cell_angle_gamma                92.4292
loop_
_atom_site_label
_atom_site_type_symbol
_atom_site_fract_x
_atom_site_fract_y
_atom_site_fract_z
     1  B          0.86957000       0.94230180       0.11039190
     2  B          0.13043000       0.05769820       0.88960810
     3  B          0.84177000       0.13319180       0.06722190
     4  B          0.15823000       0.86680820       0.93277810
     5  O          0.76077810       0.89189130       0.21754150
     6  O          0.23922190       0.10810870       0.78245850
     7  H          0.66270000       0.95830000       0.25530000
     8  H          0.33730000       0.04170000       0.74470000
     9  O          0.02020160       0.82546110       0.03475120
    10  O         -0.02020160       0.17453890       0.96524880
    11  O          0.69638000       0.25435130       0.12719140
    12  O          0.30362000       0.74564870       0.87280860
    13  H          0.61770000       0.22830000       0.18830000
    14  H          0.38230000       0.77170000       0.81170000
    15  C          0.06493000       0.64753000       0.38292000
    16  C          0.93507000       0.35247000       0.61708000
    17  H         -0.00640000       0.74430000       0.44530000
    18  H          0.00640000       0.25570000       0.55470000
    19  H          0.95470000       0.56430000       0.28920000
    20  H          0.04530000       0.43570000       0.71080000
    21  H          0.14140000       0.59430000       0.46130000
    22  H          0.85860000       0.40570000       0.53870000
    23  C          0.36423000       0.56602000       0.20352000
    24  C          0.63577000       0.43398000       0.79648000
    25  H          0.43040000       0.51130000       0.28230000
    26  H          0.56960000       0.48870000       0.71770000
    27  H          0.48530000       0.61630000       0.16230000
    28  H          0.51470000       0.38370000       0.83770000
    29  H          0.25030000       0.48930000       0.11520000
    30  H          0.74970000       0.51070000       0.88480000
    31  N          0.24432000       0.70934140       0.30725150
    32  N          0.75568000       0.29065860       0.69274850
    33  H          0.18630000       0.76120000       0.23820000
    34  H          0.81370000       0.23880000       0.76180000
    35  H          0.34730000       0.78320000       0.39220000
    36  H          0.65270000       0.21680000       0.60780000
    37  Cl         0.61120600       0.85766400       0.65149400
    38  Cl         0.38879400       0.14233600       0.34850600
