data_NEGVAZ01
_symmetry_space_group_name_H-M    'P1'
_symmetry_Int_Tables_number       1
loop_
_symmetry_equiv_pos_site_id
_symmetry_equiv_pos_as_xyz
1 x,y,z
_cell_length_a                   9.38808
_cell_length_b                   10.77889
_cell_length_c                   13.020811
_cell_angle_alpha                108.39701
_cell_angle_beta                 104.98201
_cell_angle_gamma                92.78901
loop_
_atom_site_label
_atom_site_type_symbol
_atom_site_fract_x
_atom_site_fract_y
_atom_site_fract_z
     1  N          0.11360180       0.41921170       0.76128140
     2  N          0.88639820       0.58078830       0.23871860
     3  H          0.19780000       0.41270000       0.73870000
     4  H          0.80220000       0.58730000       0.26130000
     5  H          0.11670000       0.50320000       0.80750000
     6  H          0.88330000       0.49680000       0.19250000
     7  H          0.03260000       0.39870000       0.69960000
     8  H          0.96740000       0.60130000       0.30040000
     9  N          0.87448000       0.40484190       0.86765150
    10  N          0.12552000       0.59515810       0.13234850
    11  O          0.91345810       0.51761150       0.87226130
    12  O          0.08654190       0.48238850       0.12773870
    13  O          0.74939810       0.36422000       0.86607170
    14  O          0.25060190       0.63578000       0.13392830
    15  C          0.10372000       0.32769190       0.82224160
    16  C          0.89628000       0.67230810       0.17775840
    17  C          0.21172000       0.24552000       0.83179180
    18  C          0.78828000       0.75448000       0.16820820
    19  H          0.29220000       0.25150000       0.80110000
    20  H          0.70780000       0.74850000       0.19890000
    21  C          0.20292000       0.15462000       0.88597180
    22  C          0.79708000       0.84538000       0.11402820
    23  H          0.27900000       0.10040000       0.89390000
    24  H          0.72100000       0.89960000       0.10610000
    25  C          0.08412000       0.14192000       0.92869180
    26  C          0.91588000       0.85808000       0.07130820
    27  H          0.07850000       0.07890000       0.96510000
    28  H          0.92150000       0.92110000       0.03490000
    29  C          0.97388000       0.22162000       0.91794180
    30  C          0.02612000       0.77838000       0.08205820
    31  H          0.89070000       0.21230000       0.94510000
    32  H          0.10930000       0.78770000       0.05490000
    33  C         -0.01362000       0.31512000       0.86722160
    34  C          0.01362000       0.68488000       0.13277840
    35  O          0.96167820       0.18780160       0.57068140
    36  O          0.03832180       0.81219840       0.42931860
    37  O          0.26259170       0.29416140       0.59658130
    38  O          0.73740830       0.70583860       0.40341870
    39  O          0.43770160       0.48458150       0.79644130
    40  O          0.56229840       0.51541850       0.20355870
    41  O          0.27017170       0.67157140       0.89898130
    42  O          0.72982830       0.32842860       0.10101870
    43  O          0.02415170       0.66709150       0.71756130
    44  O          0.97584830       0.33290850       0.28243870
    45  O          0.82738830       0.42818160       0.61180130
    46  O          0.17261170       0.57181840       0.38819870
    47  C          0.03063000       0.15672000       0.48302000
    48  C          0.96937000       0.84328000       0.51698000
    49  H          0.01430000       0.22160000       0.44310000
    50  H         -0.01430000       0.77840000       0.55690000
    51  H         -0.01370000       0.06790000       0.42770000
    52  H          0.01370000       0.93210000       0.57230000
    53  C          0.19473000       0.15962000       0.53232000
    54  C          0.80527000       0.84038000       0.46768000
    55  H          0.21090000       0.10530000       0.58190000
    56  H          0.78910000       0.89470000       0.41810000
    57  H          0.24070000       0.12240000       0.47090000
    58  H          0.75930000       0.87760000       0.52910000
    59  C          0.42213000       0.30592000       0.62972000
    60  C          0.57787000       0.69408000       0.37028000
    61  H          0.45750000       0.27630000       0.56170000
    62  H          0.54250000       0.72370000       0.43830000
    63  H          0.45520000       0.24920000       0.67560000
    64  H          0.54480000       0.75080000       0.32440000
    65  C          0.48602000       0.44672000       0.69713190
    66  C          0.51398000       0.55328000       0.30286810
    67  H          0.59610000       0.45670000       0.71810000
    68  H          0.40390000       0.54330000       0.28190000
    69  H          0.45180000       0.50380000       0.65180000
    70  H          0.54820000       0.49620000       0.34820000
    71  C          0.51173000       0.61092000       0.87412000
    72  C          0.48827000       0.38908000       0.12588000
    73  H          0.52020000       0.67280000       0.83300000
    74  H          0.47980000       0.32720000       0.16700000
    75  H          0.61310000       0.60330000       0.91610000
    76  H          0.38690000       0.39670000       0.08390000
    77  C          0.42052000       0.66112000       0.95502000
    78  C          0.57948000       0.33888000       0.04498000
    79  H          0.41780000       0.60070000      -0.00170000
    80  H          0.58220000       0.39930000       0.00170000
    81  H          0.46980000       0.74910000       0.00960000
    82  H          0.53020000       0.25090000      -0.00960000
    83  C          0.26123000       0.77042000       0.84622000
    84  C          0.73877000       0.22958000       0.15378000
    85  H          0.30310000       0.74330000       0.78130000
    86  H          0.69690000       0.25670000       0.21870000
    87  H          0.31890000       0.85540000       0.90090000
    88  H          0.68110000       0.14460000       0.09910000
    89  C          0.10183000       0.78552000       0.80672000
    90  C          0.89817000       0.21448000       0.19328000
    91  H          0.05740000       0.80280000       0.87020000
    92  H          0.94260000       0.19720000       0.12980000
    93  H          0.09330000       0.86130000       0.77920000
    94  H          0.90670000       0.13870000       0.22080000
    95  C          0.86717000       0.66492000       0.69192000
    96  C          0.13283000       0.33508000       0.30808000
    97  H          0.83980000       0.74690000       0.67800000
    98  H          0.16020000       0.25310000       0.32200000
    99  H          0.83290000       0.65890000       0.75620000
   100  H          0.16710000       0.34110000       0.24380000
   101  C          0.79597000       0.54823000       0.58942000
   102  C          0.20403000       0.45177000       0.41058000
   103  H          0.68690000       0.54840000       0.56660000
   104  H          0.31310000       0.45160000       0.43340000
   105  H          0.83420000       0.55270000       0.52640000
   106  H          0.16580000       0.44730000       0.47360000
   107  C          0.77057000       0.31773000       0.50962000
   108  C          0.22943000       0.68227000       0.49038000
   109  H          0.81800000       0.32650000       0.45210000
   110  H          0.18200000       0.67350000       0.54790000
   111  H          0.66170000       0.31420000       0.47950000
   112  H          0.33830000       0.68580000       0.52050000
   113  C          0.80367000       0.19462000       0.53452000
   114  C          0.19633000       0.80538000       0.46548000
   115  H          0.75930000       0.18910000       0.59440000
   116  H          0.24070000       0.81090000       0.40560000
   117  H          0.75610000       0.11740000       0.46570000
   118  H          0.24390000       0.88260000       0.53430000
   119  O          0.56882000       0.96478000       0.24652000
   120  O          0.43118000       0.03522000       0.75348000
   121  O          0.30702000       0.00552000       0.09514150
   122  O          0.69298000      -0.00552000       0.90485850
   123  O          0.45032000       0.20910170       0.31000170
   124  O          0.54968000       0.79089830       0.68999830
   125  O          0.29153000       0.97188000       0.30304180
   126  O          0.70847000       0.02812000       0.69695820
   127  I          0.40409215       0.03693513       0.23822211
   128  I          0.59590785       0.96306487       0.76177789
