data_NEHCIP
_symmetry_space_group_name_H-M    'P1'
_symmetry_Int_Tables_number       1
loop_
_symmetry_equiv_pos_site_id
_symmetry_equiv_pos_as_xyz
1 x,y,z
_cell_length_a                   8.38086
_cell_length_b                   18.06441
_cell_length_c                   12.88151
_cell_angle_alpha                90.0
_cell_angle_beta                 105.5619
_cell_angle_gamma                90.0
loop_
_atom_site_label
_atom_site_type_symbol
_atom_site_fract_x
_atom_site_fract_y
_atom_site_fract_z
     1  I          0.15906400       0.72020514       0.26384200
     2  I          0.84093600       0.22020514       0.23615800
     3  I          0.84093600       0.27979486       0.73615800
     4  I          0.15906400       0.77979486       0.76384200
     5  I          0.58163400       0.05351415       0.27178300
     6  I          0.41836600       0.55351415       0.22821700
     7  I          0.41836600       0.94648585       0.72821700
     8  I          0.58163400       0.44648585       0.77178300
     9  F          0.39013000       0.81478130       0.45519170
    10  F          0.60987000       0.31478130       0.04480830
    11  F          0.60987000       0.18521870       0.54480830
    12  F          0.39013000       0.68521870       0.95519170
    13  F          0.17793000       0.83480130       0.07682180
    14  F          0.82207000       0.33480130       0.42317820
    15  F          0.82207000       0.16519870       0.92317820
    16  F          0.17793000       0.66519870       0.57682180
    17  F          0.56073000       0.93896120       0.45803180
    18  F          0.43927000       0.43896120       0.04196820
    19  F          0.43927000       0.06103880       0.54196820
    20  F          0.56073000       0.56103880       0.95803180
    21  F          0.34193000       0.96142130       0.08110190
    22  F          0.65807000       0.46142130       0.41889810
    23  F          0.65807000       0.03857870       0.91889810
    24  F          0.34193000       0.53857870       0.58110190
    25  C          0.28205000       0.82072000       0.26603000
    26  C          0.71795000       0.32072000       0.23397000
    27  C          0.71795000       0.17928000       0.73397000
    28  C          0.28205000       0.67928000       0.76603000
    29  C          0.27065000       0.86002000       0.17253000
    30  C          0.72935000       0.36002000       0.32747000
    31  C          0.72935000       0.13998000       0.82747000
    32  C          0.27065000       0.63998000       0.67253000
    33  C          0.46526000       0.91452000       0.36303000
    34  C          0.53474000       0.41452000       0.13697000
    35  C          0.53474000       0.08548000       0.63697000
    36  C          0.46526000       0.58548000       0.86303000
    37  C          0.45356000       0.95452000       0.26983000
    38  C          0.54644000       0.45452000       0.23017000
    39  C          0.54644000       0.04548000       0.73017000
    40  C          0.45356000       0.54548000       0.76983000
    41  C          0.37786000       0.84962000       0.36173000
    42  C          0.62214000       0.34962000       0.13827000
    43  C          0.62214000       0.15038000       0.63827000
    44  C          0.37786000       0.65038000       0.86173000
    45  C          0.35726000       0.92612000       0.17523000
    46  C          0.64274000       0.42612000       0.32477000
    47  C          0.64274000       0.07388000       0.82477000
    48  C          0.35726000       0.57388000       0.67523000
    49  C          0.15246000       0.42782000       0.81303000
    50  C          0.84754000       0.92782000       0.68697000
    51  C          0.84754000       0.57218000       0.18697000
    52  C          0.15246000       0.07218000       0.31303000
    53  H          0.22470000       0.39210000       0.85110000
    54  H          0.77530000       0.89210000       0.64890000
    55  H          0.77530000       0.60790000       0.14890000
    56  H          0.22470000       0.10790000       0.35110000
    57  C          0.00455000       0.54042000       0.81033000
    58  C         -0.00455000       0.04042000       0.68967000
    59  C         -0.00455000       0.45958000       0.18967000
    60  C          0.00455000       0.95958000       0.31033000
    61  C          0.61396000       0.71952000       0.65063000
    62  C          0.38604000       0.21952000       0.84937000
    63  C          0.38604000       0.28048000       0.34937000
    64  C          0.61396000       0.78048000       0.15063000
    65  H          0.54680000       0.76110000       0.64500000
    66  H          0.45320000       0.26110000       0.85500000
    67  H          0.45320000       0.23890000       0.35500000
    68  H          0.54680000       0.73890000       0.14500000
    69  C          0.08656000       0.42012000       0.70243000
    70  C          0.91344000       0.92012000       0.79757000
    71  C          0.91344000       0.57988000       0.29757000
    72  C          0.08656000       0.07988000       0.20243000
    73  H          0.11720000       0.37980000       0.66710000
    74  H          0.88280000       0.87980000       0.83290000
    75  H          0.88280000       0.62020000       0.33290000
    76  H          0.11720000       0.12020000       0.16710000
    77  C          0.97506000       0.47202000       0.64343000
    78  C          0.02494000       0.97202000       0.85657000
    79  C          0.02494000       0.52798000       0.35657000
    80  C          0.97506000       0.02798000       0.14343000
    81  H          0.92940000       0.46610000       0.56970000
    82  H          0.07060000       0.96610000       0.93030000
    83  H          0.07060000       0.53390000       0.43030000
    84  H          0.92940000       0.03390000       0.06970000
    85  C          0.11126000       0.48842000       0.86733000
    86  C          0.88874000       0.98842000       0.63267000
    87  C          0.88874000       0.51158000       0.13267000
    88  C          0.11126000       0.01158000       0.36733000
    89  H          0.15550000       0.49350000       0.94130000
    90  H          0.84450000      -0.00650000       0.55870000
    91  H          0.84450000       0.50650000       0.05870000
    92  H          0.15550000       0.00650000       0.44130000
    93  C          0.72445000       0.70032000       0.75153000
    94  C          0.27555000       0.20032000       0.74847000
    95  C          0.27555000       0.29968000       0.24847000
    96  C          0.72445000       0.79968000       0.25153000
    97  C          0.82006000       0.63712000       0.75243000
    98  C          0.17994000       0.13712000       0.74757000
    99  C          0.17994000       0.36288000       0.24757000
   100  C          0.82006000       0.86288000       0.25243000
   101  C          0.93345000       0.53252000       0.69713000
   102  C          0.06655000       0.03252000       0.80287000
   103  C          0.06655000       0.46748000       0.30287000
   104  C          0.93345000       0.96748000       0.19713000
   105  C          0.74576000       0.73602000       0.85163000
   106  C          0.25424000       0.23602000       0.64837000
   107  C          0.25424000       0.26398000       0.14837000
   108  C          0.74576000       0.76398000       0.35163000
   109  H          0.68360000       0.77790000       0.85630000
   110  H          0.31640000       0.27790000       0.64370000
   111  H          0.31640000       0.22210000       0.14370000
   112  H          0.68360000       0.72210000       0.35630000
   113  C          0.81615000       0.59392000       0.65963000
   114  C          0.18385000       0.09392000       0.84037000
   115  C          0.18385000       0.40608000       0.34037000
   116  C          0.81615000       0.90608000       0.15963000
   117  C          0.93345000       0.60902000       0.84483000
   118  C          0.06655000       0.10902000       0.65517000
   119  C          0.06655000       0.39098000       0.15517000
   120  C          0.93345000       0.89098000       0.34483000
   121  C          0.70786000       0.61332000       0.56393000
   122  C          0.29214000       0.11332000       0.93607000
   123  C          0.29214000       0.38668000       0.43607000
   124  C          0.70786000       0.88668000       0.06393000
   125  H          0.70090000       0.58570000       0.50190000
   126  H          0.29910000       0.08570000      -0.00190000
   127  H          0.29910000       0.41430000       0.49810000
   128  H          0.70090000       0.91430000       0.00190000
   129  C          0.60616000       0.67642000       0.56103000
   130  C          0.39384000       0.17642000       0.93897000
   131  C          0.39384000       0.32358000       0.43897000
   132  C          0.60616000       0.82358000       0.06103000
   133  H          0.53130000       0.68930000       0.49610000
   134  H          0.46870000       0.18930000       0.00390000
   135  H          0.46870000       0.31070000       0.50390000
   136  H          0.53130000       0.81070000      -0.00390000
   137  C          0.85706000       0.70952000       0.94213000
   138  C          0.14294000       0.20952000       0.55787000
   139  C          0.14294000       0.29048000       0.05787000
   140  C          0.85706000       0.79048000       0.44213000
   141  H          0.87010000       0.73470000       0.00680000
   142  H          0.12990000       0.23470000       0.49320000
   143  H          0.12990000       0.26530000      -0.00680000
   144  H          0.87010000       0.76530000       0.50680000
   145  C          0.95336000       0.64492000       0.94063000
   146  C          0.04664000       0.14492000       0.55937000
   147  C          0.04664000       0.35508000       0.05937000
   148  C          0.95336000       0.85508000       0.44063000
   149  H          0.02770000       0.62760000       0.00300000
   150  H          0.97230000       0.12760000       0.49700000
   151  H          0.97230000       0.37240000      -0.00300000
   152  H          0.02770000       0.87240000       0.50300000
