data_NEHDOW
_symmetry_space_group_name_H-M    'P1'
_symmetry_Int_Tables_number       1
loop_
_symmetry_equiv_pos_site_id
_symmetry_equiv_pos_as_xyz
1 x,y,z
_cell_length_a                   7.20595
_cell_length_b                   8.31665
_cell_length_c                   14.829612
_cell_angle_alpha                90.7726
_cell_angle_beta                 92.2966
_cell_angle_gamma                91.5875
loop_
_atom_site_label
_atom_site_type_symbol
_atom_site_fract_x
_atom_site_fract_y
_atom_site_fract_z
     1  Br        -0.01349400       0.03117500       0.13282300
     2  Br         0.01349400       0.96882500       0.86717700
     3  Br         0.97255600       0.36886500       0.36304300
     4  Br         0.02744400       0.63113500       0.63695700
     5  F          0.12643000       0.70093000       0.41930150
     6  F          0.87357000       0.29907000       0.58069850
     7  F          0.85723000       0.42033000       0.16531170
     8  F          0.14277000       0.57967000       0.83468830
     9  F          0.86453000       0.69143000       0.07110160
    10  F          0.13547000       0.30857000       0.92889840
    11  F          0.13133000       0.97343000       0.32501170
    12  F          0.86867000       0.02657000       0.67498830
    13  C         -0.00475000       0.83894000       0.19653000
    14  C          0.00475000       0.16106000       0.80347000
    15  C          0.06095000       0.69735000       0.33353000
    16  C          0.93905000       0.30265000       0.66647000
    17  C          0.92535000       0.55574000       0.20633000
    18  C          0.07465000       0.44426000       0.79367000
    19  C         -0.01165000       0.55544000       0.29533000
    20  C          0.01165000       0.44456000       0.70467000
    21  C          0.92905000       0.69535000       0.15713000
    22  C          0.07095000       0.30465000       0.84287000
    23  C          0.06285000       0.83604000       0.28473000
    24  C          0.93715000       0.16396000       0.71527000
    25  C          0.49635000       0.56724000       0.29263000
    26  C          0.50365000       0.43276000       0.70737000
    27  C          0.57285000       0.69924000       0.35203000
    28  C          0.42715000       0.30076000       0.64797000
    29  C          0.38145000       0.31805000       0.22753000
    30  C          0.61855000       0.68195000       0.77247000
    31  H          0.35600000       0.20860000       0.23410000
    32  H          0.64400000       0.79140000       0.76590000
    33  C          0.63795000       0.70085000       0.44173000
    34  C          0.36205000       0.29915000       0.55827000
    35  H          0.63740000       0.60720000       0.47530000
    36  H          0.36260000       0.39280000       0.52470000
    37  C          0.57705000       0.84244000       0.30113000
    38  C          0.42295000       0.15756000       0.69887000
    39  C          0.50225000       0.80444000       0.20953000
    40  C          0.49775000       0.19556000       0.79047000
    41  C          0.45825000       0.40684000       0.30263000
    42  C          0.54175000       0.59316000       0.69737000
    43  H          0.48230000       0.35720000       0.35750000
    44  H          0.51770000       0.64280000       0.64250000
    45  C          0.34295000       0.38535000       0.14543000
    46  C          0.65705000       0.61465000       0.85457000
    47  H          0.29150000       0.32220000       0.09800000
    48  H          0.70850000       0.67780000       0.90200000
    49  C          0.46965000       0.88835000       0.13203000
    50  C          0.53035000       0.11165000       0.86797000
    51  H          0.49710000      -0.00190000       0.13010000
    52  H          0.50290000       0.00190000       0.86990000
    53  C          0.45645000       0.63614000       0.20803000
    54  C          0.54355000       0.36386000       0.79197000
    55  C          0.64645000      -0.01436000       0.34033000
    56  C          0.35355000       0.01436000       0.65967000
    57  H          0.65140000       0.07940000       0.30700000
    58  H          0.34860000       0.92060000       0.69300000
    59  C          0.38155000       0.55265000       0.13243000
    60  C          0.61845000       0.44735000       0.86757000
    61  C          0.35085000       0.64355000       0.05323000
    62  C          0.64915000       0.35645000       0.94677000
    63  H          0.30210000       0.59350000       0.00060000
    64  H          0.69790000       0.40650000      -0.00060000
    65  C          0.70406000       0.84675000       0.47983000
    66  C          0.29594000       0.15325000       0.52017000
    67  H          0.74610000       0.85000000       0.53990000
    68  H          0.25390000       0.15000000       0.46010000
    69  C          0.39306000       0.80475000       0.05453000
    70  C          0.60694000       0.19525000       0.94547000
    71  H          0.37040000       0.86250000       0.00210000
    72  H          0.62960000       0.13750000      -0.00210000
    73  C          0.70836000      -0.01385000       0.43053000
    74  C          0.29164000       0.01385000       0.56947000
    75  H          0.75300000       0.08160000       0.45780000
    76  H          0.24700000       0.91840000       0.54220000
