data_NELTIH
_symmetry_space_group_name_H-M    'P1'
_symmetry_Int_Tables_number       1
loop_
_symmetry_equiv_pos_site_id
_symmetry_equiv_pos_as_xyz
1 x,y,z
_cell_length_a                   6.76835
_cell_length_b                   7.49767
_cell_length_c                   14.48642
_cell_angle_alpha                87.9201
_cell_angle_beta                 90.7701
_cell_angle_gamma                114.1801
loop_
_atom_site_label
_atom_site_type_symbol
_atom_site_fract_x
_atom_site_fract_y
_atom_site_fract_z
     1  O          0.06873000       0.46332000       0.23168100
     2  O          0.93127000       0.53668000       0.76831900
     3  H          0.08460000       0.58560000       0.19430000
     4  H          0.91540000       0.41440000       0.80570000
     5  C          0.14273000       0.50023000       0.31659140
     6  C          0.85727000       0.49977000       0.68340860
     7  C          0.25294000       0.69193000       0.34742150
     8  C          0.74706000       0.30807000       0.65257850
     9  H          0.27580000       0.79680000       0.30640000
    10  H          0.72420000       0.20320000       0.69360000
    11  C          0.32713000       0.72813000       0.43560150
    12  C          0.67287000       0.27187000       0.56439850
    13  H          0.40250000       0.85610000       0.45390000
    14  H          0.59750000       0.14390000       0.54610000
    15  C          0.28923000       0.57263000       0.49809130
    16  C          0.71077000       0.42737000       0.50190870
    17  C          0.17803000       0.38183000       0.47268140
    18  C          0.82197000       0.61817000       0.52731860
    19  H          0.15030000       0.27850000       0.51520000
    20  H          0.84970000       0.72150000       0.48480000
    21  C          0.10903000       0.34833000       0.38264140
    22  C          0.89097000       0.65167000       0.61735860
    23  N         -0.00723000       0.14443000       0.35737130
    24  N          0.00723000       0.85557000       0.64262870
    25  N          0.36553000       0.61073000       0.59272120
    26  N          0.63447000       0.38927000       0.40727880
    27  O          0.01494000       0.09733000       0.28093140
    28  O         -0.01494000       0.90267000       0.71906860
    29  O          0.87447000       0.03113000       0.41638140
    30  O          0.12553000       0.96887000       0.58361860
    31  O          0.46833000       0.78053000       0.61404120
    32  O          0.53167000       0.21947000       0.38595880
    33  O          0.32633000       0.47193000       0.64716110
    34  O          0.67367000       0.52807000       0.35283890
    35  O          0.12672000       0.76532000       0.14150110
    36  O          0.87328000       0.23468000       0.85849890
    37  C          0.96867000       0.74733000      -0.00250150
    38  C          0.03133000       0.25267000       0.00250150
    39  H          0.08990000       0.73970000       0.97160000
    40  H          0.91010000       0.26030000       0.02840000
    41  C          0.80547000       0.74883000       0.94097860
    42  C          0.19453000       0.25117000       0.05902140
    43  H          0.81540000       0.74240000       0.87730000
    44  H          0.18460000       0.25760000       0.12270000
    45  C          0.62547000       0.75993000       0.98004860
    46  C          0.37453000       0.24007000       0.01995140
    47  C          0.61587000       0.76653000       0.07541150
    48  C          0.38413000       0.23347000       0.92458850
    49  H          0.49520000       0.77180000       0.10300000
    50  H          0.50480000       0.22820000       0.89700000
    51  C          0.78306000       0.76543000       0.12868150
    52  C          0.21694000       0.23457000       0.87131850
    53  H          0.77670000       0.77080000       0.19250000
    54  H          0.22330000       0.22920000       0.80750000
    55  N          0.95727000       0.75652000       0.08891120
    56  N          0.04273000       0.24348000       0.91108880
    57  C          0.46926000       0.77364000       0.83300840
    58  C          0.53074000       0.22636000       0.16699160
    59  H          0.59220000       0.88960000       0.81370000
    60  H          0.40780000       0.11040000       0.18630000
    61  H          0.33970000       0.77810000       0.80740000
    62  H          0.66030000       0.22190000       0.19260000
    63  H          0.48540000       0.66060000       0.81170000
    64  H          0.51460000       0.33940000       0.18830000
    65  O          0.45498000       0.76283000       0.93179890
    66  O          0.54502000       0.23717000       0.06820110
