data_NEMHIW
_symmetry_space_group_name_H-M    'P1'
_symmetry_Int_Tables_number       1
loop_
_symmetry_equiv_pos_site_id
_symmetry_equiv_pos_as_xyz
1 x,y,z
_cell_length_a                   6.12401
_cell_length_b                   7.50501
_cell_length_c                   21.7422
_cell_angle_alpha                90.0
_cell_angle_beta                 90.83
_cell_angle_gamma                90.0
loop_
_atom_site_label
_atom_site_type_symbol
_atom_site_fract_x
_atom_site_fract_y
_atom_site_fract_z
     1  S          0.02749800       0.24659800       0.37635200
     2  S          0.97250200       0.74659800       0.62364800
     3  N          0.04883000       0.28683000       0.30749800
     4  N          0.95117000       0.78683000       0.69250200
     5  C          0.89757000       0.35363000       0.26406900
     6  C          0.10243000       0.85363000       0.73593100
     7  C          0.96127000       0.33863000       0.20247900
     8  C          0.03873000       0.83863000       0.79752100
     9  H          0.09920000       0.28870000       0.19290000
    10  H          0.90080000       0.78870000       0.80710000
    11  C          0.82326000       0.39663000       0.15592100
    12  C          0.17674000       0.89663000       0.84407900
    13  H          0.86580000       0.38480000       0.11430000
    14  H          0.13420000       0.88480000       0.88570000
    15  C          0.62187000       0.47233000       0.16956100
    16  C          0.37813000       0.97233000       0.83043900
    17  H          0.52710000       0.51120000       0.13730000
    18  H          0.47290000       0.01120000       0.86270000
    19  C          0.56027000       0.49083000       0.23035100
    20  C          0.43973000      -0.00917000       0.76964900
    21  H          0.42390000       0.54400000       0.23960000
    22  H          0.57610000       0.04400000       0.76040000
    23  C          0.69677000       0.43193000       0.27791900
    24  C          0.30323000       0.93193000       0.72208100
    25  H          0.65400000       0.44490000       0.31950000
    26  H          0.34600000       0.94490000       0.68050000
    27  N          0.80177000       0.28372000       0.40538700
    28  N          0.19823000       0.78372000       0.59461300
    29  C          0.78657000       0.24783000       0.46954800
    30  C          0.21343000       0.74783000       0.53045200
    31  C          0.59516000       0.16743000       0.48915100
    32  C          0.40484000       0.66743000       0.51084900
    33  H          0.48370000       0.13690000       0.46020000
    34  H          0.51630000       0.63690000       0.53980000
    35  C          0.56756000       0.13183000       0.55133100
    36  C          0.43244000       0.63183000       0.44866900
    37  H          0.43660000       0.07720000       0.56470000
    38  H          0.56340000       0.57720000       0.43530000
    39  C          0.72876000       0.17503000       0.59377110
    40  C          0.27124000       0.67503000       0.40622890
    41  H          0.70950000       0.14940000       0.63610000
    42  H          0.29050000       0.64940000       0.36390000
    43  C          0.91896000       0.25594000       0.57427100
    44  C          0.08104000       0.75594000       0.42572900
    45  H          0.03030000       0.28530000       0.60340000
    46  H          0.96970000       0.78530000       0.39660000
    47  C          0.94836000       0.29443000       0.51234100
    48  C          0.05164000       0.79443000       0.48765900
    49  H          0.07790000       0.35210000       0.49930000
    50  H          0.92210000       0.85210000       0.50070000
    51  N          0.29413000       0.42602000       0.69436800
    52  N          0.70587000       0.92602000       0.30563200
    53  S          0.52833800       0.52699800       0.69679200
    54  S          0.47166200       0.02699800       0.30320800
    55  N          0.56542000       0.54812000       0.77085700
    56  N          0.43458000       0.04812000       0.22914300
    57  C          0.23473000       0.40913000       0.75287900
    58  C          0.76527000       0.90913000       0.24712100
    59  C          0.03923000       0.32823000       0.77344900
    60  C          0.96077000       0.82823000       0.22655100
    61  F          0.90076810       0.25752000       0.73203600
    62  F          0.09923190       0.75752000       0.26796400
    63  C         -0.00413000       0.32293000       0.83370900
    64  C          0.00413000       0.82293000       0.16629100
    65  F          0.80974820       0.24582000       0.85180600
    66  F          0.19025180       0.74582000       0.14819400
    67  C          0.14213000       0.39333000       0.88015900
    68  C          0.85787000       0.89333000       0.11984100
    69  C          0.09583000       0.38973000       0.94321900
    70  C          0.90417000       0.88973000       0.05678100
    71  F          0.90918000       0.32001190       0.96399600
    72  F          0.09082000       0.82001190       0.03600400
    73  C          0.24073000       0.45443000       0.98600900
    74  C          0.75927000       0.95443000       0.01399100
    75  F          0.19582000       0.44472190       0.04610500
    76  F          0.80418000       0.94472190       0.95389500
    77  C          0.43693000       0.52703000       0.96826900
    78  C          0.56307000       0.02703000       0.03173100
    79  F          0.57832000       0.58767190       0.01118600
    80  F          0.42168000       0.08767190       0.98881400
    81  C          0.48773000       0.53683000       0.90698800
    82  C          0.51227000       0.03683000       0.09301200
    83  F          0.67836180       0.60863180       0.89159500
    84  F          0.32163820       0.10863180       0.10840500
    85  C          0.34413000       0.47043000       0.86168800
    86  C          0.65587000       0.97043000       0.13831200
    87  C          0.38803000       0.47892000       0.79655900
    88  C          0.61197000       0.97892000       0.20344100
