data_NEMHOC
_symmetry_space_group_name_H-M    'P1'
_symmetry_Int_Tables_number       1
loop_
_symmetry_equiv_pos_site_id
_symmetry_equiv_pos_as_xyz
1 x,y,z
_cell_length_a                   7.66701
_cell_length_b                   10.87001
_cell_length_c                   12.98301
_cell_angle_alpha                83.1501
_cell_angle_beta                 87.3501
_cell_angle_gamma                78.1201
loop_
_atom_site_label
_atom_site_type_symbol
_atom_site_fract_x
_atom_site_fract_y
_atom_site_fract_z
     1  S          0.45088700       0.41266500       0.19809500
     2  S          0.54911300       0.58733500       0.80190500
     3  N          0.32152000       0.38856170       0.28706150
     4  N          0.67848000       0.61143830       0.71293850
     5  C          0.20832000       0.29877170       0.29948140
     6  C          0.79168000       0.70122830       0.70051860
     7  C          0.06182000       0.31224180       0.23459140
     8  C          0.93818000       0.68775820       0.76540860
     9  C          0.01693000       0.42252000       0.15219170
    10  C          0.98307000       0.57748000       0.84780830
    11  H          0.11280000       0.41810000       0.09940000
    12  H          0.88720000       0.58190000       0.90060000
    13  H          0.00360000       0.50160000       0.18360000
    14  H         -0.00360000       0.49840000       0.81640000
    15  H          0.90500000       0.41970000       0.11990000
    16  H          0.09500000       0.58030000       0.88010000
    17  C          0.95717000       0.22202000       0.25112160
    18  C          0.04283000       0.77798000       0.74887840
    19  H          0.85780000       0.22880000       0.20820000
    20  H          0.14220000       0.77120000       0.79180000
    21  C         -0.00653000       0.12212000       0.32860190
    22  C          0.00653000       0.87788000       0.67139810
    23  H          0.92200000       0.05970000       0.33720000
    24  H          0.07800000       0.94030000       0.66280000
    25  C          0.13463000       0.11352000       0.39346170
    26  C          0.86537000       0.88648000       0.60653830
    27  H          0.15810000       0.04530000       0.44720000
    28  H          0.84190000       0.95470000       0.55280000
    29  C          0.24243000       0.20209190       0.38187150
    30  C          0.75757000       0.79790810       0.61812850
    31  C          0.39543000       0.19373000       0.45271180
    32  C          0.60457000       0.80627000       0.54728820
    33  H          0.39280000       0.27710000       0.47500000
    34  H          0.60720000       0.72290000       0.52500000
    35  H          0.50810000       0.16570000       0.41560000
    36  H          0.49190000       0.83430000       0.58440000
    37  H          0.38470000       0.13290000       0.51360000
    38  H          0.61530000       0.86710000       0.48640000
    39  N          0.48462000       0.33629150       0.10370140
    40  N          0.51538000       0.66370850       0.89629860
    41  C          0.41752000       0.22815170       0.09161150
    42  C          0.58248000       0.77184830       0.90838850
    43  C          0.32162000       0.22552170       0.00158140
    44  C          0.67838000       0.77447830      -0.00158140
    45  F          0.29252170       0.32912110       0.93248900
    46  F          0.70747830       0.67087890       0.06751100
    47  C          0.25992000       0.12245180       0.98407870
    48  C          0.74008000       0.87754820       0.01592130
    49  F          0.17177150       0.12581130       0.89648200
    50  F          0.82822850       0.87418870       0.10351800
    51  C          0.28822000       0.01106170       0.05512130
    52  C          0.71178000      -0.01106170       0.94487870
    53  C          0.22532000       0.90087810       0.04087140
    54  C          0.77468000       0.09912190       0.95912860
    55  F          0.13302150       0.89741880       0.95642100
    56  F          0.86697850       0.10258120       0.04357900
    57  C          0.25752000       0.79615820       0.11100160
    58  C          0.74248000       0.20384180       0.88899840
    59  F          0.19545170       0.69222880       0.09710110
    60  F          0.80454830       0.30777120       0.90289890
    61  C          0.35602000       0.79448830       0.19907150
    62  C          0.64398000       0.20551170       0.80092850
    63  F          0.38603170       0.68987890       0.26630100
    64  F          0.61396830       0.31012110       0.73369900
    65  C          0.42002000       0.89806830       0.21608130
    66  C          0.57998000       0.10193170       0.78391870
    67  F          0.51307160       0.89301890       0.30136800
    68  F          0.48692840       0.10698110       0.69863200
    69  C          0.38882000       0.00975160       0.14510120
    70  C          0.61118000      -0.00975160       0.85489880
    71  C          0.45262000       0.11921170       0.15810130
    72  C          0.54738000       0.88078830       0.84189870
    73  F          0.55587140       0.11816100       0.23957800
    74  F          0.44412860       0.88183900       0.76042200
    75  C          0.06952000       0.49342180       0.53608140
    76  C          0.93048000       0.50657820       0.46391860
    77  C          0.17332000       0.58782000       0.52946160
    78  C          0.82668000       0.41218000       0.47053840
    79  F          0.30624170       0.57774140       0.59490110
    80  F          0.69375830       0.42225860       0.40509890
    81  C          0.14013000       0.69022000       0.45745170
    82  C          0.85987000       0.30978000       0.54254830
    83  F          0.23504190       0.78119140       0.45290110
    84  F          0.76495810       0.21880860       0.54709890
    85  C          0.00443000       0.70322000       0.38620160
    86  C         -0.00443000       0.29678000       0.61379840
    87  F          0.97618000       0.80543130       0.31584110
    88  F          0.02382000       0.19456870       0.68415890
    89  C          0.09723000       0.38572000       0.61106150
    90  C          0.90277000       0.61428000       0.38893850
    91  F          0.22564170       0.36906130       0.68056100
    92  F          0.77435830       0.63093870       0.31943900
