data_NEMYEM
_symmetry_space_group_name_H-M    'P1'
_symmetry_Int_Tables_number       1
loop_
_symmetry_equiv_pos_site_id
_symmetry_equiv_pos_as_xyz
1 x,y,z
_cell_length_a                   10.95077
_cell_length_b                   11.03326
_cell_length_c                   16.839212
_cell_angle_alpha                89.8033
_cell_angle_beta                 82.8304
_cell_angle_gamma                84.7573
loop_
_atom_site_label
_atom_site_type_symbol
_atom_site_fract_x
_atom_site_fract_y
_atom_site_fract_z
     1  O          0.51812000       0.87572000       0.44623140
     2  O          0.48188000       0.12428000       0.55376860
     3  O          0.88432000       0.95412000       0.44164160
     4  O          0.11568000       0.04588000       0.55835840
     5  O          0.77573000       0.77263000       0.25082160
     6  O          0.22427000       0.22737000       0.74917840
     7  N          0.75263000       0.76013000       0.41406170
     8  N          0.24737000       0.23987000       0.58593830
     9  H          0.73230000       0.83040000       0.39220000
    10  H          0.26770000       0.16960000       0.60780000
    11  N          0.69413000       0.00393000       0.33493160
    12  N          0.30587000      -0.00393000       0.66506840
    13  C          0.64563000       0.68643000       0.40942000
    14  C          0.35437000       0.31357000       0.59058000
    15  H          0.66320000       0.60570000       0.43340000
    16  H          0.33680000       0.39430000       0.56660000
    17  H          0.63560000       0.67350000       0.35250000
    18  H          0.36440000       0.32650000       0.64750000
    19  C          0.52603000       0.74743000       0.45242000
    20  C          0.47397000       0.25257000       0.54758000
    21  H          0.45560000       0.71680000       0.42950000
    22  H          0.54440000       0.28320000       0.57050000
    23  H          0.51930000       0.72490000       0.50960000
    24  H          0.48070000       0.27510000       0.49040000
    25  C          0.49133000       0.92493000       0.37122000
    26  C          0.50867000       0.07507000       0.62878000
    27  H          0.40130000       0.94720000       0.37290000
    28  H          0.59870000       0.05280000       0.62710000
    29  H          0.51700000       0.86370000       0.32810000
    30  H          0.48300000       0.13630000       0.67190000
    31  C          0.55953000       0.03463000       0.35502000
    32  C          0.44047000       0.96537000       0.64498000
    33  H          0.52740000       0.07990000       0.31000000
    34  H          0.47260000       0.92010000       0.69000000
    35  H          0.54440000       0.08840000       0.40280000
    36  H          0.45560000       0.91160000       0.59720000
    37  C          0.76504000       0.09163000       0.36903000
    38  C          0.23496000       0.90837000       0.63097000
    39  H          0.71680000       0.17230000       0.37260000
    40  H          0.28320000       0.82770000       0.62740000
    41  H          0.84250000       0.09920000       0.33300000
    42  H          0.15750000       0.90080000       0.66700000
    43  C          0.79554000       0.05563000       0.45022000
    44  C          0.20446000       0.94437000       0.54978000
    45  H          0.82880000       0.12390000       0.47580000
    46  H          0.17120000       0.87610000       0.52420000
    47  H          0.72020000       0.03460000       0.48430000
    48  H          0.27980000       0.96540000       0.51570000
    49  C          0.87593000       0.86563000       0.50332000
    50  C          0.12407000       0.13437000       0.49668000
    51  H          0.86520000       0.90760000       0.55590000
    52  H          0.13480000       0.09240000       0.44410000
    53  H          0.95430000       0.81240000       0.49900000
    54  H          0.04570000       0.18760000       0.50100000
    55  C          0.77043000       0.78793000       0.49972000
    56  C          0.22957000       0.21207000       0.50028000
    57  H          0.69340000       0.83070000       0.52720000
    58  H          0.30660000       0.16930000       0.47280000
    59  H          0.78710000       0.71060000       0.52820000
    60  H          0.21290000       0.28940000       0.47180000
    61  C          0.86983000       0.70333000       0.36862000
    62  C          0.13017000       0.29667000       0.63138000
    63  H          0.89440000       0.62500000       0.39360000
    64  H          0.10560000       0.37500000       0.60640000
    65  H          0.93640000       0.75740000       0.37130000
    66  H          0.06360000       0.24260000       0.62870000
    67  C          0.85414000       0.68103000       0.28122000
    68  C          0.14586000       0.31897000       0.71878000
    69  H          0.93620000       0.67660000       0.24860000
    70  H          0.06380000       0.32340000       0.75140000
    71  H          0.82000000       0.60170000       0.27640000
    72  H          0.18000000       0.39830000       0.72360000
    73  C          0.82964000       0.88494000       0.23032000
    74  C          0.17036000       0.11506000       0.76968000
    75  H          0.86290000       0.88480000       0.17290000
    76  H          0.13710000       0.11520000       0.82710000
    77  H          0.89760000       0.89550000       0.26250000
    78  H          0.10240000       0.10450000       0.73750000
    79  C          0.72824000       0.98484000       0.24822000
    80  C          0.27176000       0.01516000       0.75178000
    81  H          0.75520000       0.06110000       0.22370000
    82  H          0.24480000       0.93890000       0.77630000
    83  H          0.65480000       0.96430000       0.22390000
    84  H          0.34520000       0.03570000       0.77610000
    85  I          0.18100200       0.59365419       0.48052312
    86  I          0.81899800       0.40634581       0.51947688
    87  I          0.41563200       0.44958200       0.34836212
    88  I          0.58436800       0.55041800       0.65163788
    89  F          0.80363000       0.77612000       0.77442850
    90  F          0.19637000       0.22388000       0.22557150
    91  F          0.97943000       0.77112000       0.82016860
    92  F          0.02057000       0.22888000       0.17983140
    93  F          0.97448180       0.52332190       0.84351880
    94  F          0.02551820       0.47667810       0.15648120
    95  F          0.79713190       0.53362000       0.79795890
    96  F          0.20286810       0.46638000       0.20204110
    97  F          0.70172000       0.69877190       0.91505870
    98  F          0.29828000       0.30122810       0.08494130
    99  F          0.88142000       0.69312000       0.95844880
   100  F          0.11858000       0.30688000       0.04155120
   101  F          0.87884190       0.45902000      -0.00627130
   102  F          0.12115810       0.54098000       0.00627130
   103  F          0.71572000       0.44317180       0.93524890
   104  F          0.28428000       0.55682820       0.06475110
   105  F          0.57822000       0.59522000       0.03700140
   106  F          0.42178000       0.40478000       0.96299860
   107  F          0.73663000       0.64792000       0.08863130
   108  F          0.26337000       0.35208000       0.91136870
   109  F          0.78342000       0.43073000       0.14691130
   110  F          0.21658000       0.56927000       0.85308870
   111  F          0.65342000       0.35179190       0.07996120
   112  F          0.34658000       0.64820810       0.92003880
   113  F          0.46398180       0.48592000       0.15893120
   114  F          0.53601820       0.51408000       0.84106880
   115  F          0.58552000       0.59316180       0.21574120
   116  F          0.41448000       0.40683820       0.78425880
   117  F          0.67502000       0.39333000       0.29112140
   118  F          0.32498000       0.60667000       0.70887860
   119  F          0.56213000       0.28152000       0.23127160
   120  F          0.43787000       0.71848000       0.76872840
   121  C          0.90624000       0.70473000       0.78318000
   122  C          0.09376000       0.29527000       0.21682000
   123  C          0.87153000       0.59573000       0.83601820
   124  C          0.12847000       0.40427000       0.16398180
   125  C          0.80643000       0.62903000       0.92158810
   126  C          0.19357000       0.37097000       0.07841190
   127  C          0.77373000       0.51883000       0.97571820
   128  C          0.22627000       0.48117000       0.02428180
   129  C          0.69033000       0.55563000       0.05517190
   130  C          0.30967000       0.44437000       0.94482810
   131  C          0.67633000       0.45213000       0.11700190
   132  C          0.32367000       0.54787000       0.88299810
   133  C          0.57283000       0.48193000       0.18729180
   134  C          0.42717000       0.51807000       0.81270820
   135  C          0.56873000       0.39363000       0.25812000
   136  C          0.43127000       0.60637000       0.74188000
   137  I          0.00122200       0.64983219       0.66683188
   138  I         -0.00122200       0.35016781       0.33316812
   139  I          0.20674200       0.76438200       0.30554813
   140  I          0.79325800       0.23561800       0.69445187
   141  F          0.14302000       0.96662000       0.20329140
   142  F          0.85698000       0.03338000       0.79670860
   143  F          0.16212000       0.79612000       0.13971140
   144  F          0.83788000       0.20388000       0.86028860
   145  F          0.41482000       0.77882000       0.15624180
   146  F          0.58518000       0.22118000       0.84375820
   147  F          0.38552000       0.96123000       0.20648130
   148  F          0.61448000       0.03877000       0.79351870
   149  F          0.27222000       0.02642000       0.06647140
   150  F          0.72778000       0.97358000       0.93352860
   151  F          0.34283000       0.84753000       0.02088150
   152  F          0.65717000       0.15247000       0.97911850
   153  F          0.57732000       0.90732000       0.06541130
   154  F          0.42268000       0.09268000       0.93458870
   155  F          0.48842000       0.08952000       0.08701130
   156  F          0.51158000       0.91048000       0.91298870
   157  C          0.21203000       0.86063000       0.19262000
   158  C          0.78797000       0.13937000       0.80738000
   159  C          0.34483000       0.88353000       0.15752000
   160  C          0.65517000       0.11647000       0.84248000
   161  C          0.35893000       0.93603000       0.07152000
   162  C          0.64107000       0.06397000       0.92848000
   163  C          0.48743000       0.98473000       0.04514190
   164  C          0.51257000       0.01527000       0.95485810
