data_NEMYAI
_symmetry_space_group_name_H-M    'P1'
_symmetry_Int_Tables_number       1
loop_
_symmetry_equiv_pos_site_id
_symmetry_equiv_pos_as_xyz
1 x,y,z
_cell_length_a                   10.911212
_cell_length_b                   11.033612
_cell_length_c                   14.883614
_cell_angle_alpha                85.54612
_cell_angle_beta                 77.9221
_cell_angle_gamma                84.5691
loop_
_atom_site_label
_atom_site_type_symbol
_atom_site_fract_x
_atom_site_fract_y
_atom_site_fract_z
     1  I          0.31564213       0.40475112       0.52326290
     2  I          0.68435787       0.59524888       0.47673710
     3  I          0.27030213       0.21596813       0.72412290
     4  I          0.72969787       0.78403187       0.27587710
     5  F          0.31871140       0.01226130       0.85235110
     6  F          0.68128860       0.98773870       0.14764890
     7  F          0.26737170       0.18135150       0.92014100
     8  F          0.73262830       0.81864850       0.07985900
     9  F          0.08879150      -0.00598150       0.82947900
    10  F          0.91120850       0.00598150       0.17052100
    11  F          0.02494160       0.17618150       0.87494120
    12  F          0.97505840       0.82381850       0.12505880
    13  F          0.06268160       0.11927140       0.04249100
    14  F          0.93731840       0.88072860       0.95750900
    15  F          0.15290140       0.93996870       0.00538100
    16  F          0.84709860       0.06003130      -0.00538100
    17  C          0.24052000       0.11432000       0.85642150
    18  C          0.75948000       0.88568000       0.14357850
    19  C          0.10372000       0.07842000       0.88653140
    20  C          0.89628000       0.92158000       0.11346860
    21  C          0.06542000       0.02710190       0.98782140
    22  C          0.93458000       0.97289810       0.01217860
    23  I          0.51587313       0.36416912       0.30838590
    24  I          0.48412687       0.63583088       0.69161410
    25  I          0.06559313       0.53552913       0.67933310
    26  I          0.93440687       0.46447087       0.32066690
    27  C          0.62192000       0.31502000       0.17445150
    28  C          0.37808000       0.68498000       0.82554850
    29  C          0.66837190       0.42686190       0.11217140
    30  C          0.33162810       0.57313810       0.88782860
    31  C          0.75202000       0.39691190       0.01696140
    32  C          0.24798000       0.60308810       0.98303860
    33  C          0.78082000       0.51028190       0.94901860
    34  C          0.21918000       0.48971810       0.05098140
    35  C          0.88958190       0.48409180       0.86533860
    36  C          0.11041810       0.51590820       0.13466140
    37  C          0.90482000       0.58402000       0.78603840
    38  C          0.09518000       0.41598000       0.21396160
    39  F          0.72212170       0.23856140       0.18474120
    40  F          0.27787830       0.76143860       0.81525880
    41  F          0.54895180       0.25530160       0.13345110
    42  F          0.45104820       0.74469840       0.86654890
    43  F          0.56751130       0.49993140       0.09769100
    44  F          0.43248870       0.50006860       0.90230900
    45  F          0.73489140       0.48800130       0.15736900
    46  F          0.26510860       0.51199870       0.84263100
    47  F          0.86109140       0.34004130       0.03123100
    48  F          0.13890860       0.65995870       0.96876900
    49  F          0.69362160       0.32096150       0.97698900
    50  F          0.30637840       0.67903850       0.02301100
    51  F          0.67572140       0.54928160       0.91798890
    52  F          0.32427860       0.45071840       0.08201110
    53  F          0.81180150       0.59975130      -0.00569100
    54  F          0.18819850       0.40024870       0.00569100
    55  F         -0.00233880       0.46726130       0.89554100
    56  F          0.00233880       0.53273870       0.10445900
    57  F          0.87012130       0.38030120       0.83020100
    58  F          0.12987870       0.61969880       0.16979900
    59  F          0.80036160       0.59728190       0.75035880
    60  F          0.19963840       0.40271810       0.24964120
    61  F          0.91582000       0.69057140       0.82048880
    62  F          0.08418000       0.30942860       0.17951120
    63  O          0.69423180       0.20288170       0.78805120
    64  O          0.30576820       0.79711830       0.21194880
    65  O          0.97620160       0.11993150       0.56122110
    66  O          0.02379840       0.88006850       0.43877890
    67  O          0.60599170       0.04301160       0.56772130
    68  O          0.39400830       0.95698840       0.43227870
    69  N          0.73677170       0.23221170       0.60044130
    70  N          0.26322830       0.76778830       0.39955870
    71  H          0.75230000       0.15730000       0.62920000
    72  H          0.24770000       0.84270000       0.37080000
    73  N          0.78527190       0.98146820       0.68960130
    74  N          0.21472810       0.01853180       0.31039870
    75  C          0.61372000       0.28532000       0.65312170
    76  C          0.38628000       0.71468000       0.34687830
    77  H          0.54680000       0.23170000       0.65040000
    78  H          0.45320000       0.76830000       0.34960000
    79  H          0.59220000       0.36620000       0.62420000
    80  H          0.40780000       0.63380000       0.37580000
    81  C          0.61882000       0.29882000       0.75344170
    82  C          0.38118000       0.70118000       0.24655830
    83  H          0.65290000       0.37740000       0.75870000
    84  H          0.34710000       0.62260000       0.24130000
    85  H          0.53250000       0.30050000       0.79120000
    86  H          0.46750000       0.69950000       0.20880000
    87  C          0.63763000       0.08863000       0.81195180
    88  C          0.36237000       0.91137000       0.18804820
    89  H          0.57240000       0.08170000       0.77580000
    90  H          0.42760000       0.91830000       0.22420000
    91  H          0.59820000       0.08240000       0.87820000
    92  H          0.40180000       0.91760000       0.12180000
    93  C          0.74203000      -0.00963000       0.78987170
    94  C          0.25797000       0.00963000       0.21012830
    95  H          0.81340000       0.00790000       0.81710000
    96  H          0.18660000      -0.00790000       0.18290000
    97  H          0.71250000       0.91120000       0.81780000
    98  H          0.28750000       0.08880000       0.18220000
    99  C          0.92272000       0.95038000       0.66570180
   100  C          0.07728000       0.04962000       0.33429820
   101  H          0.94280000       0.90240000       0.61020000
   102  H          0.05720000       0.09760000       0.38980000
   103  H          0.94940000       0.89910000       0.71690000
   104  H          0.05060000       0.10090000       0.28310000
   105  C         -0.00548000       0.06232000       0.64767160
   106  C          0.00548000       0.93768000       0.35232840
   107  H          0.96350000       0.11880000       0.69750000
   108  H          0.03650000       0.88120000       0.30250000
   109  H          0.08500000       0.03960000       0.64530000
   110  H          0.91500000       0.96040000       0.35470000
   111  C          0.96932000       0.24922000       0.55456170
   112  C          0.03068000       0.75078000       0.44543830
   113  H          0.98170000       0.27810000       0.48890000
   114  H          0.01830000       0.72190000       0.51110000
   115  H          0.03810000       0.27690000       0.57990000
   116  H          0.96190000       0.72310000       0.42010000
   117  C          0.84442000       0.30532000       0.60580160
   118  C          0.15558000       0.69468000       0.39419840
   119  H          0.84850000       0.31080000       0.67120000
   120  H          0.15150000       0.68920000       0.32880000
   121  H          0.82910000       0.38920000       0.57940000
   122  H          0.17090000       0.61080000       0.42060000
   123  C          0.72952000       0.21452000       0.50178160
   124  C          0.27048000       0.78548000       0.49821840
   125  H          0.81000000       0.17390000       0.47000000
   126  H          0.19000000       0.82610000       0.53000000
   127  H          0.71690000       0.29510000       0.46940000
   128  H          0.28310000       0.70490000       0.53060000
   129  C          0.62262000       0.13792000       0.49708160
   130  C          0.37738000       0.86208000       0.50291840
   131  H          0.54370000       0.19140000       0.50210000
   132  H          0.45630000       0.80860000       0.49790000
   133  H          0.63980000       0.10160000       0.43650000
   134  H          0.36020000       0.89840000       0.56350000
   135  C          0.69683000       0.94128000       0.55690180
   136  C          0.30317000       0.05872000       0.44309820
   137  H          0.77680000       0.96560000       0.51780000
   138  H          0.22320000       0.03440000       0.48220000
   139  H          0.66640000       0.87590000       0.52730000
   140  H          0.33360000       0.12410000       0.47270000
   141  C          0.71623000       0.89708000       0.65132000
   142  C          0.28377000       0.10292000       0.34868000
   143  H          0.63350000       0.88800000       0.69270000
   144  H          0.36650000       0.11200000       0.30730000
   145  H          0.76360000       0.81590000       0.64800000
   146  H          0.23640000       0.18410000       0.35200000
