data_NEMYUC
_symmetry_space_group_name_H-M    'P1'
_symmetry_Int_Tables_number       1
loop_
_symmetry_equiv_pos_site_id
_symmetry_equiv_pos_as_xyz
1 x,y,z
_cell_length_a                   10.822414
_cell_length_b                   11.049015
_cell_length_c                   13.5002
_cell_angle_alpha                81.66412
_cell_angle_beta                 70.0161
_cell_angle_gamma                84.62512
loop_
_atom_site_label
_atom_site_type_symbol
_atom_site_fract_x
_atom_site_fract_y
_atom_site_fract_z
     1  I          0.80742300       0.40009200       0.52640200
     2  I          0.19257700       0.59990800       0.47359800
     3  O          0.86743000       0.81473000       0.17283000
     4  O          0.13257000       0.18527000       0.82717000
     5  O          0.53513000       0.88643000       0.42932000
     6  O          0.46487000       0.11357000       0.57068000
     7  O          0.90823000       0.95533000       0.42772000
     8  O          0.09177000       0.04467000       0.57228000
     9  N          0.75744000       0.03023000       0.28373000
    10  N          0.24256000       0.96977000       0.71627000
    11  N          0.78083000       0.77173000       0.38963000
    12  N          0.21917000       0.22827000       0.61037000
    13  H          0.77550000       0.85150000       0.35640000
    14  H          0.22450000       0.14850000       0.64360000
    15  C          0.82665000       0.02664000       0.16874000
    16  C          0.17335000       0.97336000       0.83126000
    17  H          0.86630000       0.10620000       0.13640000
    18  H          0.13370000       0.89380000       0.86360000
    19  H          0.76260000       0.01300000       0.13410000
    20  H          0.23740000       0.98700000       0.86590000
    21  C          0.93205000       0.92634000       0.15034000
    22  C          0.06795000       0.07366000       0.84966000
    23  H          0.99180000       0.93670000       0.07570000
    24  H          0.00820000       0.06330000       0.92430000
    25  H          0.98450000       0.92730000       0.19750000
    26  H          0.01550000       0.07270000       0.80250000
    27  C          0.93105000       0.71254000       0.21544000
    28  C          0.06895000       0.28746000       0.78456000
    29  H          0.02590000       0.70940000       0.17310000
    30  H          0.97410000       0.29060000       0.82690000
    31  H          0.89360000       0.63630000       0.21010000
    32  H          0.10640000       0.36370000       0.78990000
    33  C          0.91455000       0.72004000       0.33103000
    34  C          0.08545000       0.27996000       0.66897000
    35  H          0.92800000       0.63700000       0.36590000
    36  H          0.07200000       0.36300000       0.63410000
    37  H          0.98230000       0.77220000       0.33410000
    38  H          0.01770000       0.22780000       0.66590000
    39  C          0.67265000       0.70214000       0.38174000
    40  C          0.32735000       0.29786000       0.61826000
    41  H          0.68000000       0.61610000       0.41300000
    42  H          0.32000000       0.38390000       0.58700000
    43  H          0.68310000       0.70190000       0.30600000
    44  H          0.31690000       0.29810000       0.69400000
    45  C          0.53725000       0.75704000       0.43854000
    46  C          0.46275000       0.24296000       0.56146000
    47  H          0.47320000       0.73250000       0.40820000
    48  H          0.52680000       0.26750000       0.59180000
    49  H          0.50950000       0.72370000       0.51460000
    50  H          0.49050000       0.27630000       0.48540000
    51  C          0.53745000       0.94944000       0.32833000
    52  C          0.46255000       0.05056000       0.67167000
    53  H          0.44650000       0.97230000       0.32890000
    54  H          0.55350000       0.02770000       0.67110000
    55  H          0.57950000       0.89590000       0.27190000
    56  H          0.42050000       0.10410000       0.72810000
    57  C          0.61445000       0.06284000       0.30744000
    58  C          0.38555000       0.93716000       0.69256000
    59  H          0.60090000       0.11720000       0.24660000
    60  H          0.39910000       0.88280000       0.75340000
    61  H          0.58190000       0.10780000       0.37040000
    62  H          0.41810000       0.89220000       0.62960000
    63  C          0.81915000       0.11014000       0.32904000
    64  C          0.18085000       0.88986000       0.67096000
    65  H          0.77220000       0.19160000       0.33170000
    66  H          0.22780000       0.80840000       0.66830000
    67  H          0.91150000       0.12120000       0.28260000
    68  H          0.08850000       0.87880000       0.71740000
    69  C          0.81645000       0.05864000       0.43774000
    70  C          0.18355000       0.94136000       0.56226000
    71  H          0.84140000       0.12090000       0.47230000
    72  H          0.15860000       0.87910000       0.52770000
    73  H          0.72680000       0.03290000       0.48150000
    74  H          0.27320000       0.96710000       0.51850000
    75  C          0.76745000       0.78184000       0.50333000
    76  C          0.23255000       0.21816000       0.49667000
    77  H          0.77190000       0.69870000       0.54120000
    78  H          0.22810000       0.30130000       0.45880000
    79  H          0.68040000       0.82090000       0.53900000
    80  H          0.31960000       0.17910000       0.46100000
    81  C          0.87465000       0.85614000       0.50994000
    82  C          0.12535000       0.14386000       0.49006000
    83  H          0.84460000       0.88830000       0.57940000
    84  H          0.15540000       0.11170000       0.42060000
    85  H          0.95400000       0.80190000       0.50570000
    86  H          0.04600000       0.19810000       0.49430000
    87  I          0.72157300       0.19591300       0.75883200
    88  I          0.27842700       0.80408700       0.24116800
    89  F          0.75363000      -0.00603000       0.91492000
    90  F          0.24637000       0.00603000       0.08508000
    91  F          0.66393000       0.15713000       0.98602000
    92  F          0.33607000       0.84287000       0.01398000
    93  F          0.44082000       0.12562000       0.93207190
    94  F          0.55918000       0.87438000       0.06792810
    95  F          0.53663000       0.95648000       0.87274190
    96  F          0.46337000       0.04352000       0.12725810
    97  C          0.66475000       0.08684000       0.91333000
    98  C          0.33525000       0.91316000       0.08667000
    99  C          0.52724000       0.03494000       0.94313000
   100  C          0.47276000       0.96506000       0.05687000
   101  I          0.52752300       0.51967300       0.71457200
   102  I          0.47247700       0.48032700       0.28542800
   103  I          0.04862300       0.37992300       0.27575200
   104  I          0.95137700       0.62007700       0.72424800
   105  F          0.37563000       0.65342000       0.89142000
   106  F          0.62437000       0.34658000       0.10858000
   107  F          0.25043000       0.58253000       0.81992000
   108  F          0.74957000       0.41747000       0.18008000
   109  F          0.29733000       0.35402000       0.89473180
   110  F          0.70267000       0.64598000       0.10526820
   111  F          0.44382000       0.40942000       0.95498180
   112  F          0.55618000       0.59058000       0.04501820
   113  F          0.26833000       0.53822000       0.09193190
   114  F          0.73167000       0.46178000       0.90806810
   115  F          0.11603000       0.51772000       0.02568190
   116  F          0.88397000       0.48228000       0.97431810
   117  F          0.12143000       0.27563000       0.07852000
   118  F          0.87857000       0.72437000       0.92148000
   119  C          0.35675000       0.55594000       0.85014000
   120  C          0.64325000       0.44406000       0.14986000
   121  F          0.28913000       0.28153000       0.13002000
   122  F          0.71087000       0.71847000       0.86998000
   123  C          0.33114000       0.44484000       0.93593000
   124  C          0.66886000       0.55516000       0.06407000
   125  C          0.22334000       0.46274000       0.04353000
   126  C          0.77666000       0.53726000       0.95647000
   127  C          0.18145000       0.34504000       0.12004000
   128  C          0.81855000       0.65496000       0.87996000
