data_NENRUT
_symmetry_space_group_name_H-M    'P1'
_symmetry_Int_Tables_number       1
loop_
_symmetry_equiv_pos_site_id
_symmetry_equiv_pos_as_xyz
1 x,y,z
_cell_length_a                   8.38645
_cell_length_b                   10.24903
_cell_length_c                   18.256711
_cell_angle_alpha                90.0
_cell_angle_beta                 97.573319
_cell_angle_gamma                90.0
loop_
_atom_site_label
_atom_site_type_symbol
_atom_site_fract_x
_atom_site_fract_y
_atom_site_fract_z
     1  I          0.57585500       0.29307400       0.00716200
     2  I          0.92414500       0.79307400       0.49283800
     3  I          0.42414500       0.70692600      -0.00716200
     4  I          0.07585500       0.20692600       0.50716200
     5  I          0.44681700       0.18095600       0.12441300
     6  I          0.05318300       0.68095600       0.37558700
     7  I          0.55318300       0.81904400       0.87558700
     8  I          0.94681700       0.31904400       0.62441300
     9  P          0.93172160       0.37263120       0.90363300
    10  P          0.56827840       0.87263120       0.59636700
    11  P          0.06827840       0.62736880       0.09636700
    12  P          0.43172160       0.12736880       0.40363300
    13  S          0.69769170       0.40799140       0.88224200
    14  S          0.80230830       0.90799140       0.61775800
    15  S          0.30230830       0.59200860       0.11775800
    16  S          0.19769170       0.09200860       0.38224200
    17  C         -0.01574000       0.20264000       0.89837000
    18  C          0.51574000       0.70264000       0.60163000
    19  C          0.01574000       0.79736000       0.10163000
    20  C          0.48426000       0.29736000       0.39837000
    21  C          0.01637000       0.42755000      -0.00493000
    22  C          0.48363000       0.92755000       0.50493000
    23  C         -0.01637000       0.57245000       0.00493000
    24  C          0.51637000       0.07245000       0.49507000
    25  H          0.96940000       0.37790000       0.03220000
    26  H          0.53060000       0.87790000       0.46780000
    27  H          0.03060000       0.62210000       0.96780000
    28  H          0.46940000       0.12210000       0.53220000
    29  H          0.13150000       0.41210000       0.00220000
    30  H          0.36850000       0.91210000       0.49780000
    31  H          0.86850000       0.58790000      -0.00220000
    32  H          0.63150000       0.08790000       0.50220000
    33  C          0.20267000       0.43846000       0.83977000
    34  C          0.29733000       0.93846000       0.66023000
    35  C          0.79733000       0.56154000       0.16023000
    36  C          0.70267000       0.06154000       0.33977000
    37  H          0.25410000       0.37220000       0.86870000
    38  H          0.24590000       0.87220000       0.63130000
    39  H          0.74590000       0.62780000       0.13130000
    40  H          0.75410000       0.12780000       0.36870000
    41  C          0.28697000       0.51327000       0.79546000
    42  C          0.21303000       0.01327000       0.70454000
    43  C          0.71303000       0.48673000       0.20454000
    44  C          0.78697000      -0.01327000       0.29546000
    45  H          0.39610000       0.49770000       0.79500000
    46  H          0.10390000      -0.00230000       0.70500000
    47  H          0.60390000       0.50230000       0.20500000
    48  H          0.89610000       0.00230000       0.29500000
    49  C          0.03966000       0.46245000       0.84117000
    50  C          0.46034000       0.96245000       0.65883000
    51  C          0.96034000       0.53755000       0.15883000
    52  C          0.53966000       0.03755000       0.34117000
    53  C          0.96507000       0.56205000       0.79717000
    54  C          0.53493000       0.06205000       0.70283000
    55  C          0.03493000       0.43795000       0.20283000
    56  C          0.46507000       0.93795000       0.29717000
    57  H          0.85620000       0.57920000       0.79740000
    58  H          0.64380000       0.07920000       0.70260000
    59  H          0.14380000       0.42080000       0.20260000
    60  H          0.35620000       0.92080000       0.29740000
    61  C          0.10978000       0.14945000       0.94407000
    62  C          0.39022000       0.64945000       0.55593000
    63  C          0.89022000       0.85055000       0.05593000
    64  C          0.60978000       0.35055000       0.44407000
    65  H          0.16760000       0.20110000       0.98010000
    66  H          0.33240000       0.70110000       0.51990000
    67  H          0.83240000       0.79890000       0.01990000
    68  H          0.66760000       0.29890000       0.48010000
    69  C          0.05347000       0.63486000       0.75337000
    70  C          0.44653000       0.13486000       0.74663000
    71  C          0.94653000       0.36514000       0.24663000
    72  C          0.55347000       0.86514000       0.25337000
    73  H          0.00390000       0.70160000       0.72440000
    74  H          0.49610000       0.20160000       0.77560000
    75  H         -0.00390000       0.29840000       0.27560000
    76  H          0.50390000       0.79840000       0.22440000
    77  C          0.21278000       0.60966000       0.75237000
    78  C          0.28722000       0.10966000       0.74763000
    79  C          0.78722000       0.39034000       0.24763000
    80  C          0.71278000       0.89034000       0.25237000
    81  H          0.27090000       0.65850000       0.72210000
    82  H          0.22910000       0.15850000       0.77790000
    83  H          0.72910000       0.34150000       0.27790000
    84  H          0.77090000       0.84150000       0.22210000
    85  C          0.89817000       0.12406000       0.84537000
    86  C          0.60183000       0.62406000       0.65463000
    87  C          0.10183000       0.87594000       0.15463000
    88  C          0.39817000       0.37594000       0.34537000
    89  H          0.81220000       0.15880000       0.81400000
    90  H          0.68780000       0.65880000       0.68600000
    91  H          0.18780000       0.84120000       0.18600000
    92  H          0.31220000       0.34120000       0.31400000
    93  C          0.93888000      -0.00526000       0.83876000
    94  C          0.56112000       0.49474000       0.66124000
    95  C          0.06112000       0.00526000       0.16124000
    96  C          0.43888000       0.50526000       0.33876000
    97  H          0.87980000       0.94250000       0.80340000
    98  H          0.62020000       0.44250000       0.69660000
    99  H          0.12020000       0.05750000       0.19660000
   100  H          0.37980000       0.55750000       0.30340000
   101  C          0.06589000       0.94344000       0.88416000
   102  C          0.43411000       0.44344000       0.61584000
   103  C          0.93411000       0.05656000       0.11584000
   104  C          0.56589000       0.55656000       0.38416000
   105  H          0.09410000       0.85660000       0.87910000
   106  H          0.40590000       0.35660000       0.62090000
   107  H          0.90590000       0.14340000       0.12090000
   108  H          0.59410000       0.64340000       0.37910000
   109  C          0.15219000       0.02016000       0.93746000
   110  C          0.34781000       0.52016000       0.56254000
   111  C          0.84781000       0.97984000       0.06254000
   112  C          0.65219000       0.47984000       0.43746000
   113  H          0.23790000       0.98500000       0.96880000
   114  H          0.26210000       0.48500000       0.53120000
   115  H          0.76210000       0.01500000       0.03120000
   116  H          0.73790000       0.51500000       0.46880000
