data_NENWAH
_symmetry_space_group_name_H-M    'P1'
_symmetry_Int_Tables_number       1
loop_
_symmetry_equiv_pos_site_id
_symmetry_equiv_pos_as_xyz
1 x,y,z
_cell_length_a                   7.62884
_cell_length_b                   10.18964
_cell_length_c                   10.26795
_cell_angle_alpha                111.2234
_cell_angle_beta                 102.7364
_cell_angle_gamma                102.7504
loop_
_atom_site_label
_atom_site_type_symbol
_atom_site_fract_x
_atom_site_fract_y
_atom_site_fract_z
     1  O          0.46292120       0.41769900       0.69300900
     2  O          0.53707880       0.58230100       0.30699100
     3  N          0.50137150       0.66450110       0.80660110
     4  N          0.49862850       0.33549890       0.19339890
     5  H          0.42220000       0.65481700       0.72311900
     6  H          0.57780000       0.34518300       0.27688100
     7  C          0.54091160       0.54004120       0.80703130
     8  C          0.45908840       0.45995880       0.19296870
     9  C          0.67259170       0.56145130       0.94216130
    10  C          0.32740830       0.43854870       0.05783870
    11  H          0.70570000       0.47930000       0.94970000
    12  H          0.29430000       0.52070000       0.05030000
    13  C          0.75091170       0.69812140       0.05985130
    14  C          0.24908830       0.30187860       0.94014870
    15  H          0.83830000       0.71020000       0.14850000
    16  H          0.16170000       0.28980000       0.85150000
    17  C          0.70403180       0.82206130       0.05194130
    18  C          0.29596820       0.17793870       0.94805870
    19  H          0.75800000       0.91730000       0.13430000
    20  H          0.24200000       0.08270000       0.86570000
    21  C          0.57989180       0.80167130       0.92372130
    22  C          0.42010820       0.19832870       0.07627870
    23  H          0.54740000       0.88380000       0.91550000
    24  H          0.45260000       0.11620000       0.08450000
    25  O          0.26479120       0.64280900       0.54766900
    26  O          0.73520880       0.35719100       0.45233100
    27  N          0.21313140       0.39421110       0.42661110
    28  N          0.78686860       0.60578890       0.57338890
    29  H          0.29220000       0.40081700       0.50571900
    30  H          0.70780000       0.59918300       0.49428100
    31  C          0.17760160       0.52158120       0.43218130
    32  C          0.82239840       0.47841880       0.56781870
    33  C          0.04074170       0.50614130       0.30295130
    34  C          0.95925830       0.49385870       0.69704870
    35  H          0.00760000       0.59020000       0.30100000
    36  H         -0.00760000       0.40980000       0.69900000
    37  C          0.95746830       0.37153130       0.18249130
    38  C          0.04253170       0.62846870       0.81750870
    39  H          0.86780000       0.36320000       0.09690000
    40  H          0.13220000       0.63680000       0.90310000
    41  C          0.00178170       0.24432130       0.18243130
    42  C         -0.00178170       0.75567870       0.81756870
    43  H          0.94360000       0.15070000       0.09810000
    44  H          0.05640000       0.84930000       0.90190000
    45  C          0.13030170       0.25949130       0.30679130
    46  C          0.86969830       0.74050870       0.69320870
    47  H          0.16230000       0.17540000       0.30990000
    48  H          0.83770000       0.82460000       0.69010000
    49  N          0.62656140       0.97707110       0.70390110
    50  N          0.37343860       0.02292890       0.29609890
    51  N          0.78337140       0.10188110       0.77644110
    52  N          0.21662860       0.89811890       0.22355890
    53  N          0.74161140       0.21869110       0.77835110
    54  N          0.25838860       0.78130890       0.22164890
    55  N          0.55158140       0.17172100       0.70497100
    56  N          0.44841860       0.82827900       0.29502900
    57  H          0.49520000       0.23651700       0.69431600
    58  H          0.50480000       0.76348300       0.30568400
    59  N          0.30276140       0.92719100       0.58377110
    60  N          0.69723860       0.07280900       0.41622890
    61  H          0.28720000       0.83020000       0.56501800
    62  H          0.71280000       0.16980000       0.43498200
    63  N          0.17068140       0.11138100       0.57789100
    64  N          0.82931860       0.88861900       0.42210900
    65  N          0.01805140       0.14675100       0.53646110
    66  N         -0.01805140       0.85324900       0.46353890
    67  C          0.48494160       0.02382120       0.66102120
    68  C          0.51505840       0.97617880       0.33897880
    69  C          0.14714160       0.96645120       0.54050120
    70  C          0.85285840       0.03354880       0.45949880
