data_NEQNAB
_symmetry_space_group_name_H-M    'P1'
_symmetry_Int_Tables_number       1
loop_
_symmetry_equiv_pos_site_id
_symmetry_equiv_pos_as_xyz
1 x,y,z
_cell_length_a                   7.8453
_cell_length_b                   9.3894
_cell_length_c                   12.0935
_cell_angle_alpha                98.62313
_cell_angle_beta                 106.64713
_cell_angle_gamma                107.59013
loop_
_atom_site_label
_atom_site_type_symbol
_atom_site_fract_x
_atom_site_fract_y
_atom_site_fract_z
     1  S          0.38239600       0.40395500       0.09326400
     2  S          0.61760400       0.59604500       0.90673600
     3  C          0.36762000       0.46958190       0.23065140
     4  C          0.63238000       0.53041810       0.76934860
     5  N          0.30660190       0.36002150       0.28237120
     6  N          0.69339810       0.63997850       0.71762880
     7  C          0.26702000       0.21516190       0.21080150
     8  C          0.73298000       0.78483810       0.78919850
     9  H          0.22100000       0.12280000       0.23400000
    10  H          0.77900000       0.87720000       0.76600000
    11  C          0.29782000       0.21365190       0.10595150
    12  C          0.70218000       0.78634810       0.89404850
    13  C          0.26973000       0.07692000       0.01099160
    14  C          0.73027000       0.92308000      -0.01099160
    15  H          0.22790000      -0.01790000       0.03660000
    16  H          0.77210000       0.01790000       0.96340000
    17  H          0.39040000       0.08910000      -0.00200000
    18  H          0.60960000       0.91090000       0.00200000
    19  H          0.17230000       0.07030000       0.93640000
    20  H          0.82770000       0.92970000       0.06360000
    21  H          0.39230000       0.63920000       0.35251700
    22  H          0.60770000       0.36080000       0.64748300
    23  N          0.41272000       0.62343160       0.28618130
    24  N          0.58728000       0.37656840       0.71381870
    25  C          0.48762000       0.74532000       0.24201160
    26  C          0.51238000       0.25468000       0.75798840
    27  O          0.51792000       0.72390150       0.14821120
    28  O          0.48208000       0.27609850       0.85178880
    29  C          0.53083000       0.90322000       0.32037180
    30  C          0.46917000       0.09678000       0.67962820
    31  H          0.52060000       0.97590000       0.26960000
    32  H          0.47940000       0.02410000       0.73040000
    33  H          0.43410000       0.89520000       0.35900000
    34  H          0.56590000       0.10480000       0.64100000
    35  C          0.72793000       0.96762000       0.41599190
    36  C          0.27207000       0.03238000       0.58400810
    37  H          0.73720000       0.89830000       0.46860000
    38  H          0.26280000       0.10170000       0.53140000
    39  H          0.74940000       0.07010000       0.46300000
    40  H          0.25060000       0.92990000       0.53700000
    41  H          0.82440000       0.97620000       0.37830000
    42  H          0.17560000       0.02380000       0.62170000
    43  C          0.20132000       0.53441190       0.64096140
    44  C          0.79868000       0.46558810       0.35903860
    45  C          0.12232000       0.39859190       0.67222140
    46  C          0.87768000       0.60140810       0.32777860
    47  H          0.10410000       0.30070000       0.62560000
    48  H          0.89590000       0.69930000       0.37440000
    49  C          0.07122000       0.41031190       0.77310140
    50  C          0.92878000       0.58968810       0.22689860
    51  C          0.09712000       0.55062000       0.84528160
    52  C          0.90288000       0.44938000       0.15471840
    53  H          0.06310000       0.55490000       0.91470000
    54  H          0.93690000       0.44510000       0.08530000
    55  C          0.17463000       0.68472000       0.81242160
    56  C          0.82537000       0.31528000       0.18757840
    57  H          0.19300000       0.78230000       0.85960000
    58  H          0.80700000       0.21770000       0.14040000
    59  C          0.22552000       0.67692000       0.71075160
    60  C          0.77448000       0.32308000       0.28924840
    61  H          0.27700000       0.76920000       0.68880000
    62  H          0.72300000       0.23080000       0.31120000
    63  C          0.25932000       0.52762190       0.53188140
    64  C          0.74068000       0.47237810       0.46811860
    65  O          0.31489170       0.64459130       0.49732100
    66  O          0.68510830       0.35540870       0.50267900
    67  H          0.27040000       0.38030000       0.41030000
    68  H          0.72960000       0.61970000       0.58970000
    69  O          0.24442180       0.38917140       0.48105110
    70  O          0.75557820       0.61082860       0.51894890
    71  N         -0.01682000       0.26591180       0.80385130
    72  N          0.01682000       0.73408820       0.19614870
    73  O          0.96578000       0.14230160       0.74096130
    74  O          0.03422000       0.85769840       0.25903870
    75  O          0.92828810       0.27401160       0.88988110
    76  O          0.07171190       0.72598840       0.11011890
