data_NERFID
_symmetry_space_group_name_H-M    'P1'
_symmetry_Int_Tables_number       1
loop_
_symmetry_equiv_pos_site_id
_symmetry_equiv_pos_as_xyz
1 x,y,z
_cell_length_a                   6.14922
_cell_length_b                   10.45393
_cell_length_c                   17.36155
_cell_angle_alpha                79.0063
_cell_angle_beta                 88.6192
_cell_angle_gamma                77.6483
loop_
_atom_site_label
_atom_site_type_symbol
_atom_site_fract_x
_atom_site_fract_y
_atom_site_fract_z
     1  I          0.36800400       0.19645200       0.41124200
     2  I          0.63199600       0.80354800       0.58875800
     3  F          0.02045000       0.22813000       0.54972170
     4  F          0.97955000       0.77187000       0.45027830
     5  F          0.73924000       0.07893000       0.61712180
     6  F          0.26076000       0.92107000       0.38287820
     7  C          0.15057000       0.07744000       0.46502000
     8  C          0.84943000       0.92256000       0.53498000
     9  C          0.01367000       0.11444000       0.52462000
    10  C         -0.01367000       0.88556000       0.47538000
    11  C          0.86663000       0.03844000       0.55862000
    12  C          0.13337000       0.96156000       0.44138000
    13  I          0.17864500       0.28535300       0.10240200
    14  I          0.82135500       0.71464700       0.89759800
    15  F          0.14666000       0.59743000       0.08301190
    16  F          0.85334000       0.40257000       0.91698810
    17  F          0.38156000       0.76353000       0.00322000
    18  F          0.61844000       0.23647000      -0.00322000
    19  C          0.37378000       0.41295000       0.04132000
    20  C          0.62622000       0.58705000       0.95868000
    21  C          0.32188000       0.54725000       0.04213000
    22  C          0.67812000       0.45275000       0.95787000
    23  C          0.44408000       0.63415000       0.00113000
    24  C          0.55592000       0.36585000      -0.00113000
    25  S          0.68844000       0.77559820       0.16586110
    26  S          0.31156000       0.22440180       0.83413890
    27  N          0.58905000       0.38783000       0.31047190
    28  N          0.41095000       0.61217000       0.68952810
    29  O          0.49427000       0.61653000       0.38193000
    30  O          0.50573000       0.38347000       0.61807000
    31  N          0.90997000       0.13264000       0.20002000
    32  N          0.09003000       0.86736000       0.79998000
    33  C          0.66737000       0.32114000       0.24402000
    34  C          0.33263000       0.67886000       0.75598000
    35  H          0.71982400       0.38390800       0.20313700
    36  H          0.28017600       0.61609200       0.79686300
    37  H          0.54315800       0.29478200       0.22246500
    38  H          0.45684200       0.70521800       0.77753500
    39  C          0.76417000       0.43865000       0.34293000
    40  C          0.23583000       0.56135000       0.65707000
    41  H          0.82220400       0.49813000       0.30164200
    42  H          0.17779600       0.50187000       0.69835800
    43  H          0.88537400       0.36482200       0.36362300
    44  H          0.11462600       0.63517800       0.63637700
    45  C          0.85408000       0.19824000       0.26753000
    46  C          0.14592000       0.80176000       0.73247000
    47  H         -0.01590300       0.22433500       0.28485200
    48  H          0.01590300       0.77566500       0.71514800
    49  H          0.80670200       0.13695400       0.31063200
    50  H          0.19329800       0.86304600       0.68936800
    51  C          0.39958000       0.49954000       0.28393000
    52  C          0.60042000       0.50046000       0.71607000
    53  H          0.27922200       0.46563600       0.26549300
    54  H          0.72077800       0.53436400       0.73450700
    55  H          0.44479400       0.56092500       0.24043100
    56  H          0.55520600       0.43907500       0.75956900
    57  C          0.67219000       0.51285000       0.40783000
    58  C          0.32781000       0.48715000       0.59217000
    59  H          0.62491800       0.45101500       0.45062500
    60  H          0.37508200       0.54898500       0.54937500
    61  H          0.78892000       0.54768700       0.42765700
    62  H          0.21108000       0.45231300       0.57234300
    63  C          0.31849000       0.57235000       0.34993000
    64  C          0.68151000       0.42765000       0.65007000
    65  H          0.20011300       0.64861400       0.33030000
    66  H          0.79988700       0.35138600       0.66970000
    67  H          0.25793500       0.51347600       0.39082300
    68  H          0.74206500       0.48652400       0.60917700
    69  C          0.87229000       0.01975000       0.19963000
    70  C          0.12771000       0.98025000       0.80037000
    71  C          0.94671300       0.95543000       0.12844000
    72  C          0.05328700       0.04457000       0.87156000
    73  H         -0.01079900       0.02265800       0.08764000
    74  H          0.01079900       0.97734200       0.91236000
    75  H          0.07870500       0.88601100       0.14342200
    76  H          0.92129500       0.11398900       0.85657800
    77  C          0.76021300       0.93464000       0.26334000
    78  C          0.23978700       0.06536000       0.73666000
    79  H          0.87458900       0.86421400       0.29193400
    80  H          0.12541100       0.13578600       0.70806600
    81  H          0.69175200      -0.00987800       0.29992400
    82  H          0.30824800       0.00987800       0.70007600
    83  C          0.79041500       0.89993000       0.09624000
    84  C          0.20958500       0.10007000       0.90376000
    85  H          0.85782400       0.85976900       0.05305700
    86  H          0.14217600       0.14023100       0.94694300
    87  H          0.66536000       0.97084000       0.07503800
    88  H          0.33464000       0.02916000       0.92496200
    89  C          0.59881400       0.87664000       0.23724000
    90  C          0.40118600       0.12336000       0.76276000
    91  H          0.47434900       0.94718800       0.21514700
    92  H          0.52565100       0.05281200       0.78485300
    93  H          0.54485500       0.82244100       0.28217800
    94  H          0.45514500       0.17755900       0.71782200
