data_NESYAM
_symmetry_space_group_name_H-M    'P1'
_symmetry_Int_Tables_number       1
loop_
_symmetry_equiv_pos_site_id
_symmetry_equiv_pos_as_xyz
1 x,y,z
_cell_length_a                   5.80665
_cell_length_b                   8.95448
_cell_length_c                   28.3603
_cell_angle_alpha                97.9572
_cell_angle_beta                 90.2652
_cell_angle_gamma                91.1562
loop_
_atom_site_label
_atom_site_type_symbol
_atom_site_fract_x
_atom_site_fract_y
_atom_site_fract_z
     1  C          0.84186000       0.45643000       0.41202900
     2  H          0.67860000       0.42870000       0.40700000
     3  C          0.87075000       0.62403000       0.41093900
     4  C          0.70144000       0.72004000       0.42998110
     5  H          0.57030000       0.68040000       0.44280000
     6  C          0.72423000       0.87344000       0.43027140
     7  H          0.60850000       0.93670000       0.44300000
     8  C          0.91603000       0.93224000       0.41194140
     9  H          0.93150000       0.03590000       0.41230000
    10  C          0.08377000       0.84124000       0.39334150
    11  H          0.21460000       0.88200000       0.38080000
    12  C          0.06135000       0.68624000       0.39285120
    13  H          0.17810000       0.62400000       0.38000000
    14  C         -0.01895000       0.35733000       0.37573900
    15  C          0.18595000       0.29513000       0.38766110
    16  H          0.24100000       0.31450000       0.41880000
    17  C          0.30916000       0.20474000       0.35400130
    18  H          0.44590000       0.16290000       0.36260000
    19  C          0.23128000       0.17624000       0.30810150
    20  H          0.31370000       0.11400000       0.28550000
    21  C          0.03118000       0.23935000       0.29534130
    22  H         -0.01990000       0.22230000       0.26390000
    23  C          0.90414000       0.32904000       0.32954110
    24  H          0.76670000       0.36980000       0.32100000
    25  C          0.78696000       0.32963000       0.48040900
    26  C          0.86816000       0.32323000       0.53134800
    27  H          0.81740000       0.41360000       0.55180000
    28  C          0.12814000       0.31473000       0.53482800
    29  H          0.19730000       0.40160000       0.52220000
    30  C          0.20444000       0.31903000       0.58597900
    31  C          0.17654000       0.45413000       0.66465800
    32  H          0.33100000       0.41440000       0.66790000
    33  C          0.18384000       0.62133000       0.68061900
    34  C          0.36675000       0.68933000       0.70712100
    35  H          0.49040000       0.63130000       0.71400000
    36  C          0.36956000       0.84174000       0.72364120
    37  H          0.49420000       0.88540000       0.74150000
    38  C          0.19187000       0.92774000       0.71396120
    39  H          0.19290000       0.03010000       0.72560000
    40  C          0.00926000       0.86364000       0.68693120
    41  H          0.88900000       0.92340000       0.67940000
    42  C          0.00325000       0.71083000       0.67092110
    43  H          0.87670000       0.66780000       0.65350000
    44  C          0.00884000       0.37133000       0.69319900
    45  C          0.04315000       0.37593000       0.74169100
    46  H          0.17240000       0.42660000       0.75590000
    47  C          0.89054000       0.30743000       0.76936100
    48  H          0.91560000       0.31350000       0.80200000
    49  C          0.70135000       0.23013000       0.74860110
    50  H          0.59870000       0.18260000       0.76710000
    51  C          0.66455000       0.22323000       0.70091110
    52  H          0.53600000       0.17130000       0.68680000
    53  C          0.81825000       0.29343000       0.67317900
    54  H          0.79180000       0.28750000       0.64060000
    55  O          0.90787000       0.43160190       0.46056600
    56  O          0.62787000       0.25742000       0.46186600
    57  O          0.77217000       0.19412000       0.54809700
    58  H          0.63890000       0.21040000       0.55630000
    59  O          0.19973000       0.18222000       0.50687600
    60  H          0.33280000       0.19370000       0.49830000
    61  O          0.34134000       0.23683000       0.59926700
    62  O          0.11093000       0.43138180       0.61441600
    63  C          0.53474000       0.57323000       0.91547200
    64  H          0.38030000       0.60950000       0.90980000
    65  C          0.70984000       0.65773000       0.88905200
    66  C          0.89504000       0.73733000       0.91080100
    67  H          0.91410000       0.74370000       0.94360000
    68  C          0.05365000       0.80813000       0.88460890
    69  H          0.17660000       0.86290000       0.90000000
    70  C          0.03045000       0.79763000       0.83579890
    71  H          0.13880000       0.84310000       0.81800000
    72  C          0.84646000       0.71983000       0.81408900
    73  H          0.82730000       0.71390000       0.78130000
    74  C          0.68775000       0.64943000       0.84029900
    75  H          0.56400000       0.59560000       0.82480000
    76  C          0.53954000       0.40523000       0.90013200
    77  C          0.72605000       0.32253000       0.91065900
    78  H          0.84890000       0.37060000       0.92810000
    79  C          0.73326000       0.17003000       0.89577890
    80  H          0.86010000       0.11560000       0.90310000
    81  C          0.55176000       0.09823000       0.86998890
    82  H          0.55550000      -0.00520000       0.86010000
    83  C          0.36646000       0.17814000       0.85891890
    84  H          0.24480000       0.12970000       0.84110000
    85  C          0.36035000       0.33173000       0.87432100
    86  H          0.23280000       0.38580000       0.86710000
    87  C          0.43594000       0.56603000      -0.00345800
    88  C          0.51814000       0.60583000       0.04792800
    89  H          0.46100000       0.70550000       0.06050000
    90  C          0.77934000       0.60883000       0.05276800
    91  H          0.84240000       0.67790000       0.03190000
    92  C          0.86064000       0.66293000       0.10307900
    93  C          0.81014000       0.84913000       0.17167800
    94  H          0.97340000       0.82960000       0.17640000
    95  C          0.67175000       0.77883000       0.20818900
    96  C          0.75476000       0.79234000       0.25460110
    97  H          0.89320000       0.84340000       0.26290000
    98  C          0.62849000       0.72885000       0.28854130
    99  H          0.68240000       0.73830000       0.31980000
   100  C          0.42408000       0.65175000       0.27648140
   101  H          0.34210000       0.60740000       0.29920000
   102  C          0.34396000       0.64124000       0.23133130
   103  H          0.20420000       0.59150000       0.22320000
   104  C          0.46565000       0.70273000       0.19744110
   105  H          0.40810000       0.69300000       0.16650000
   106  C          0.78165000       0.01753000       0.17252900
   107  C          0.59145000       0.09133000       0.19119110
   108  H          0.47570000       0.03770000       0.20460000
   109  C          0.56927000       0.24254000       0.19042140
   110  H          0.43940000       0.29080000       0.20350000
   111  C          0.73518000       0.32324000       0.17065140
   112  H          0.71890000       0.42610000       0.17020000
   113  C          0.92288000       0.25304000       0.15175140
   114  H          0.03530000       0.30710000       0.13770000
   115  C          0.94916000       0.09964000       0.15320120
   116  H          0.08150000       0.05250000       0.14100000
   117  O          0.59142000       0.60851170       0.96579500
   118  O          0.25393000       0.50892000       0.98457400
   119  O          0.42803000       0.49862190       0.07587600
   120  H          0.30330000       0.52690000       0.08680000
   121  O          0.86223000       0.46349180       0.03728600
   122  H         -0.01410000       0.47060000       0.02390000
   123  O          0.02343000       0.61292000       0.12172600
   124  O          0.74103000       0.77922190       0.12355600
   125  C          0.53748000       0.86045000       0.58401160
   126  H          0.66500000       0.82030000       0.59940000
   127  H          0.43440000       0.90790000       0.60760000
   128  H          0.59300000       0.93340000       0.56470000
   129  C          0.41527000       0.73834000       0.55394130
   130  C          0.19228000       0.77745000       0.53446170
   131  H          0.15090000       0.70450000       0.50750000
   132  H          0.20430000       0.87570000       0.52470000
   133  H          0.07610000       0.77740000       0.55840000
   134  O          0.48895000       0.61473000       0.54722120
   135  C          0.52201000       0.06997000       0.04373000
   136  H          0.56280000       0.00630000       0.06690000
   137  H          0.51210000       0.17220000       0.05880000
   138  H          0.63740000       0.06390000       0.01940000
   139  C          0.16851000       0.13345000       0.00272000
   140  H          0.04240000       0.08530000       0.98400000
   141  H          0.26600000       0.18580000       0.98280000
   142  H          0.10970000       0.20390000       0.02810000
   143  C          0.30068000       0.02024000       0.02233140
   144  O          0.22156000       0.89597000       0.02257150
