data_NIFTAX
_symmetry_space_group_name_H-M    'P1'
_symmetry_Int_Tables_number       1
loop_
_symmetry_equiv_pos_site_id
_symmetry_equiv_pos_as_xyz
1 x,y,z
_cell_length_a                   14.92901
_cell_length_b                   15.2262
_cell_length_c                   16.8022
_cell_angle_alpha                63.6901
_cell_angle_beta                 65.1301
_cell_angle_gamma                64.2001
loop_
_atom_site_label
_atom_site_type_symbol
_atom_site_fract_x
_atom_site_fract_y
_atom_site_fract_z
     1  Cl         0.27541140       0.93312130       0.46640110
     2  Cl         0.72458860       0.06687870       0.53359890
     3  Cl         0.35741140       0.87584130       0.14766100
     4  Cl         0.64258860       0.12415870       0.85233900
     5  Cl         0.23487150       0.59714120       0.47034110
     6  Cl         0.76512850       0.40285880       0.52965890
     7  Cl         0.34758140       0.15775130       0.30839150
     8  Cl         0.65241860       0.84224870       0.69160850
     9  Cl         0.69052000       0.93792000       0.41802000
    10  Cl         0.30948000       0.06208000       0.58198000
    11  Cl         0.56912140       0.78003140       0.26866140
    12  Cl         0.43087860       0.21996860       0.73133860
    13  Cl         0.54677150       0.04292000       0.08867140
    14  Cl         0.45322850       0.95708000       0.91132860
    15  Cl         0.24412000       0.32862000       0.94428000
    16  Cl         0.75588000       0.67138000       0.05572000
    17  Cl         0.14263120       0.06603130       0.28150130
    18  Cl         0.85736880       0.93396870       0.71849870
    19  Cl         0.48753130       0.58139140       0.29837130
    20  Cl         0.51246870       0.41860860       0.70162870
    21  Cl         0.62542000       0.55923000       0.95778000
    22  Cl         0.37458000       0.44077000       0.04222000
    23  Cl         0.22622000       0.74602000       0.08502000
    24  Cl         0.77378000       0.25398000       0.91498000
    25  Cl         0.07364140       0.88052140       0.27072000
    26  Cl         0.92635860       0.11947860       0.72928000
    27  Cl         0.86478000       0.61422000       0.40473000
    28  Cl         0.13522000       0.38578000       0.59527000
    29  Cl         0.27671150       0.47522140       0.30722000
    30  Cl         0.72328850       0.52477860       0.69278000
    31  Cl         0.11318140       0.83922000       0.71159140
    32  Cl         0.88681860       0.16078000       0.28840860
    33  Cl         0.47502000       0.69662000       0.78483140
    34  Cl         0.52498000       0.30338000       0.21516860
    35  Cl         0.46375140       0.62862000       0.50597120
    36  Cl         0.53624860       0.37138000       0.49402880
    37  Cl         0.24901150       0.52165150       0.71683140
    38  Cl         0.75098850       0.47834850       0.28316860
    39  Cl         0.84248000       0.60622000       0.79182000
    40  Cl         0.15752000       0.39378000       0.20818000
    41  Cl         0.02497140       0.87153150       0.50791130
    42  Cl         0.97502860       0.12846850       0.49208870
    43  C          0.29334000       0.85304000       0.40954000
    44  C          0.70666000       0.14696000       0.59046000
    45  C          0.33104000       0.88574000       0.31274000
    46  C          0.66896000       0.11426000       0.68726000
    47  C          0.32144000       0.83275000       0.26804000
    48  C          0.67856000       0.16725000       0.73196000
    49  C          0.28304000       0.74834000       0.31434000
    50  C          0.71696000       0.25166000       0.68566000
    51  C          0.25664000       0.71664000       0.41044000
    52  C          0.74336000       0.28336000       0.58956000
    53  C          0.25854000       0.76704000       0.46144000
    54  C          0.74146000       0.23296000       0.53856000
    55  C          0.37644000       0.97124000       0.26264000
    56  C          0.62356000       0.02876000       0.73736000
    57  C          0.45684000       0.96615000       0.29524000
    58  C          0.54316000       0.03385000       0.70476000
    59  C          0.45005000       0.04615000       0.31935000
    60  C          0.54995000       0.95385000       0.68065000
    61  C          0.51946000       0.03916000       0.35605000
    62  C          0.48054000       0.96084000       0.64395000
    63  H          0.51236000       0.09416000       0.37115000
    64  H          0.48764000       0.90584000       0.62885000
    65  C          0.60046000       0.94967000       0.37056000
    66  C          0.39954000       0.05033000       0.62944000
    67  C          0.61335000       0.86936000       0.34565000
    68  C          0.38665000       0.13064000       0.65435000
    69  H          0.66905000       0.80966000       0.35375000
    70  H          0.33095000       0.19034000       0.64625000
    71  C          0.54165000       0.87955000       0.30844000
    72  C          0.45835000       0.12045000       0.69156000
    73  C          0.34475000       0.05684000       0.18494000
    74  C          0.65525000       0.94316000       0.81506000
    75  C          0.41435000       0.09955000       0.10435000
    76  C          0.58565000       0.90045000       0.89565000
    77  C          0.38626000       0.18156000       0.02965000
    78  C          0.61374000       0.81844000       0.97035000
    79  H          0.43576000       0.20606000       0.97695000
    80  H          0.56424000       0.79394000       0.02305000
    81  C          0.28207000       0.22526000       0.03655000
    82  C          0.71793000       0.77474000       0.96345000
    83  C          0.20886000       0.18905000       0.11285000
    84  C          0.79114000       0.81095000       0.88715000
    85  H          0.13886000       0.22045000       0.11615000
    86  H          0.86114000       0.77955000       0.88385000
    87  C          0.24005000       0.10525000       0.18514000
    88  C          0.75995000       0.89475000       0.81486000
    89  C          0.27164000       0.69665000       0.26534000
    90  C          0.72836000       0.30335000       0.73466000
    91  C          0.35845000       0.66235000       0.19074000
    92  C          0.64155000       0.33765000       0.80926000
    93  C          0.46045000       0.61045000       0.19854000
    94  C          0.53955000       0.38955000       0.80146000
    95  C          0.54115000       0.57785000       0.12925000
    96  C          0.45885000       0.42215000       0.87075000
    97  H          0.60735000       0.54245000       0.13675000
    98  H          0.39265000       0.45755000       0.86325000
    99  C          0.52266000       0.59826000       0.04775000
   100  C          0.47734000       0.40174000       0.95225000
   101  C          0.42566000       0.64827000       0.03565000
   102  C          0.57434000       0.35173000       0.96435000
   103  H          0.41406000       0.66137000       0.98055000
   104  H          0.58594000       0.33863000       0.01945000
   105  C          0.34706000       0.67786000       0.10625000
   106  C          0.65294000       0.32214000       0.89375000
   107  C          0.17315000       0.67745000       0.29414000
   108  C          0.82685000       0.32255000       0.70586000
   109  C          0.07755000       0.75465000       0.30625000
   110  C          0.92245000       0.24535000       0.69375000
   111  C          0.98425000       0.73496000       0.34016000
   112  C          0.01575000       0.26504000       0.65984000
   113  H          0.92225000       0.78796000       0.34746000
   114  H          0.07775000       0.21204000       0.65254000
   115  C          0.98294000       0.63747000       0.36316000
   116  C          0.01706000       0.36253000       0.63684000
   117  C          0.07366000       0.55906000       0.34986000
   118  C          0.92634000       0.44094000       0.65014000
   119  H          0.07236000       0.49336000       0.36336000
   120  H          0.92764000       0.50664000       0.63664000
   121  C          0.16595000       0.57926000       0.31645000
   122  C          0.83405000       0.42074000       0.68355000
   123  C          0.22694000       0.73214000       0.56304000
   124  C          0.77306000       0.26786000       0.43696000
   125  C          0.28845000       0.72975000       0.61324000
   126  C          0.71155000       0.27025000       0.38676000
   127  C          0.24275000       0.76935000       0.68664000
   128  C          0.75725000       0.23065000       0.31336000
   129  C          0.29886000       0.76086000       0.73895000
   130  C          0.70114000       0.23914000       0.26105000
   131  H          0.26546000       0.78686000       0.78835000
   132  H          0.73454000       0.21314000       0.21165000
   133  C          0.40306000       0.71435000       0.71765000
   134  C          0.59694000       0.28565000       0.28235000
   135  C          0.45385000       0.67655000       0.64304000
   136  C          0.54615000       0.32345000       0.35696000
   137  H          0.52535000       0.64605000       0.62764000
   138  H          0.47465000       0.35395000       0.37236000
   139  C          0.39635000       0.68525000       0.59234000
   140  C          0.60365000       0.31475000       0.40766000
   141  C          0.13414000       0.69835000       0.61554000
   142  C          0.86586000       0.30165000       0.38446000
   143  C          0.13425000       0.60765000       0.69164000
   144  C          0.86575000       0.39235000       0.30836000
   145  C          0.04666000       0.57756000       0.74495000
   146  C          0.95334000       0.42244000       0.25505000
   147  H          0.04946000       0.51706000       0.79495000
   148  H          0.95054000       0.48294000       0.20505000
   149  C          0.95445000       0.63906000       0.72285000
   150  C          0.04555000       0.36094000       0.27715000
   151  C          0.95015000       0.72676000       0.64845000
   152  C          0.04985000       0.27324000       0.35155000
   153  H          0.88815000       0.76686000       0.63315000
   154  H          0.11185000       0.23314000       0.36685000
   155  C          0.03975000       0.75515000       0.59584000
   156  C          0.96025000       0.24485000       0.40416000
   157  C          0.07462000       0.64331800      -0.00271800
   158  C          0.92538000       0.35668200       0.00271800
   159  H          0.12382000       0.63851800       0.93878200
   160  H          0.87618000       0.36148200       0.06121800
   161  H          0.02292000       0.61291800       0.01181800
   162  H          0.97708000       0.38708200       0.98818200
   163  H          0.10972000       0.60751800       0.04461800
   164  H          0.89028000       0.39248200       0.95538200
   165  C          0.03022100       0.73991800      -0.00711500
   166  C          0.96977900       0.26008200       0.00711500
   167  H          0.99587900       0.77601800       0.94428500
   168  H          0.00412100       0.22398200       0.05571500
   169  H          0.08302100       0.77061800       0.97668500
   170  H          0.91697900       0.22938200       0.02331500
   171  C          0.96208000       0.75161600       0.07121600
   172  C          0.03792000       0.24838400       0.92878400
   173  H          0.99218000       0.70841600       0.12241600
   174  H          0.00782000       0.29158400       0.87758400
   175  H          0.90178000       0.73381600       0.08281600
   176  H          0.09822000       0.26618400       0.91718400
   177  C          0.93598100       0.85131500       0.06091600
   178  C          0.06401900       0.14868500       0.93908400
   179  H          0.99518100       0.86811500       0.05391600
   180  H          0.00481900       0.13188500       0.94608400
   181  H          0.91048100       0.89461500       0.00711600
   182  H          0.08951900       0.10538500      -0.00711600
   183  C          0.86247600       0.86391800       0.13741700
   184  C          0.13752400       0.13608200       0.86258300
   185  H          0.88857600       0.82181800       0.19101700
   186  H          0.11142400       0.17818200       0.80898300
   187  H          0.80417600       0.84531800       0.14521700
   188  H          0.19582400       0.15468200       0.85478300
   189  C          0.83377600       0.96542000       0.12642000
   190  C          0.16622400       0.03458000       0.87358000
   191  H          0.89217600       0.99212000       0.09902000
   192  H          0.10782400       0.00788000       0.90098000
   193  H          0.78997600       0.98202000       0.18302000
   194  H          0.21002400       0.01798000       0.81698000
   195  C          0.77356900      -0.00256800       0.05813400
   196  C          0.22643100       0.00256800       0.94186600
   197  H          0.74376900       0.07093200       0.03843400
   198  H          0.25623100       0.92906800       0.96156600
   199  H          0.71936900       0.96583200       0.08783400
   200  H          0.28063100       0.03416800       0.91216600
   201  H          0.81986900       0.97553200       0.00533400
   202  H          0.18013100       0.02446800      -0.00533400
