data_NIJHEV
_symmetry_space_group_name_H-M    'P1'
_symmetry_Int_Tables_number       1
loop_
_symmetry_equiv_pos_site_id
_symmetry_equiv_pos_as_xyz
1 x,y,z
_cell_length_a                   29.941914
_cell_length_b                   7.20403
_cell_length_c                   12.11706
_cell_angle_alpha                90.0
_cell_angle_beta                 96.1774
_cell_angle_gamma                90.0
loop_
_atom_site_label
_atom_site_type_symbol
_atom_site_fract_x
_atom_site_fract_y
_atom_site_fract_z
     1  C          0.17741400       0.71890160       0.14835100
     2  C          0.82258600       0.71890160       0.35164900
     3  C          0.67741400       0.21890160       0.14835100
     4  C          0.32258600       0.21890160       0.35164900
     5  C          0.82258600       0.28109840       0.85164900
     6  C          0.17741400       0.28109840       0.64835100
     7  C          0.32258600       0.78109840       0.85164900
     8  C          0.67741400       0.78109840       0.64835100
     9  C          0.18176500       0.60248190       0.23947120
    10  C          0.81823500       0.60248190       0.26052880
    11  C          0.68176500       0.10248190       0.23947120
    12  C          0.31823500       0.10248190       0.26052880
    13  C          0.81823500       0.39751810       0.76052880
    14  C          0.18176500       0.39751810       0.73947120
    15  C          0.31823500       0.89751810       0.76052880
    16  C          0.68176500       0.89751810       0.73947120
    17  H          0.16860000       0.63530000       0.30270000
    18  H          0.83140000       0.63530000       0.19730000
    19  H          0.66860000       0.13530000       0.30270000
    20  H          0.33140000       0.13530000       0.19730000
    21  H          0.83140000       0.36470000       0.69730000
    22  H          0.16860000       0.36470000       0.80270000
    23  H          0.33140000       0.86470000       0.69730000
    24  H          0.66860000       0.86470000       0.80270000
    25  C          0.22512700       0.38773000       0.14657160
    26  C          0.77487300       0.38773000       0.35342840
    27  C          0.72512700       0.88773000       0.14657160
    28  C          0.27487300       0.88773000       0.35342840
    29  C          0.77487300       0.61227000       0.85342840
    30  C          0.22512700       0.61227000       0.64657160
    31  C          0.27487300       0.11227000       0.85342840
    32  C          0.72512700       0.11227000       0.64657160
    33  H          0.24110000       0.27710000       0.14580000
    34  H          0.75890000       0.27710000       0.35420000
    35  H          0.74110000       0.77710000       0.14580000
    36  H          0.25890000       0.77710000       0.35420000
    37  H          0.75890000       0.72290000       0.85420000
    38  H          0.24110000       0.72290000       0.64580000
    39  H          0.25890000       0.22290000       0.85420000
    40  H          0.74110000       0.22290000       0.64580000
    41  C          0.20550500       0.43732000       0.23800140
    42  C          0.79449500       0.43732000       0.26199860
    43  C          0.70550500       0.93732000       0.23800140
    44  C          0.29449500       0.93732000       0.26199860
    45  C          0.79449500       0.56268000       0.76199860
    46  C          0.20550500       0.56268000       0.73800140
    47  C          0.29449500       0.06268000       0.76199860
    48  C          0.70550500       0.06268000       0.73800140
    49  H          0.20800000       0.36030000       0.29990000
    50  H          0.79200000       0.36030000       0.20010000
    51  H          0.70800000       0.86030000       0.29990000
    52  H          0.29200000       0.86030000       0.20010000
    53  H          0.79200000       0.63970000       0.70010000
    54  H          0.20800000       0.63970000       0.79990000
    55  H          0.29200000       0.13970000       0.70010000
    56  H          0.70800000       0.13970000       0.79990000
    57  C          0.19772700       0.66773000       0.05568130
    58  C          0.80227300       0.66773000       0.44431870
    59  C          0.69772700       0.16773000       0.05568130
    60  C          0.30227300       0.16773000       0.44431870
    61  C          0.80227300       0.33227000       0.94431870
    62  C          0.19772700       0.33227000       0.55568130
    63  C          0.30227300       0.83227000       0.94431870
    64  C          0.69772700       0.83227000       0.55568130
    65  H          0.19560000       0.74460000      -0.00630000
    66  H          0.80440000       0.74460000       0.50630000
    67  H          0.69560000       0.24460000      -0.00630000
    68  H          0.30440000       0.24460000       0.50630000
    69  H          0.80440000       0.25540000       0.00630000
    70  H          0.19560000       0.25540000       0.49370000
    71  H          0.30440000       0.75540000       0.00630000
    72  H          0.69560000       0.75540000       0.49370000
    73  C          0.22127900       0.50173000       0.05506170
    74  C          0.77872100       0.50173000       0.44493830
    75  C          0.72127900       0.00173000       0.05506170
    76  C          0.27872100       0.00173000       0.44493830
    77  C          0.77872100       0.49827000       0.94493830
    78  C          0.22127900       0.49827000       0.55506170
    79  C          0.27872100      -0.00173000       0.94493830
    80  C          0.72127900      -0.00173000       0.55506170
    81  H          0.23460000       0.46740000      -0.00780000
    82  H          0.76540000       0.46740000       0.50780000
    83  H          0.73460000       0.96740000      -0.00780000
    84  H          0.26540000       0.96740000       0.50780000
    85  H          0.76540000       0.53260000       0.00780000
    86  H          0.23460000       0.53260000       0.49220000
    87  H          0.26540000       0.03260000       0.00780000
    88  H          0.73460000       0.03260000       0.49220000
    89  C          0.15259400       0.89746160       0.14837900
    90  C          0.84740600       0.89746160       0.35162100
    91  C          0.65259400       0.39746160       0.14837900
    92  C          0.34740600       0.39746160       0.35162100
    93  C          0.84740600       0.10253840       0.85162100
    94  C          0.15259400       0.10253840       0.64837900
    95  C          0.34740600       0.60253840       0.85162100
    96  C          0.65259400       0.60253840       0.64837900
    97  C          0.12007400       0.14223150       0.05271900
    98  C          0.87992600       0.14223150       0.44728100
    99  C          0.62007400       0.64223150       0.05271900
   100  C          0.37992600       0.64223150       0.44728100
   101  C          0.87992600       0.85776850       0.94728100
   102  C          0.12007400       0.85776850       0.55271900
   103  C          0.37992600       0.35776850       0.94728100
   104  C          0.62007400       0.35776850       0.55271900
   105  C          0.11958400       0.12529150       0.23940900
   106  C          0.88041600       0.12529150       0.26059100
   107  C          0.61958400       0.62529150       0.23940900
   108  C          0.38041600       0.62529150       0.26059100
   109  C          0.88041600       0.87470850       0.76059100
   110  C          0.11958400       0.87470850       0.73940900
   111  C          0.38041600       0.37470850       0.76059100
   112  C          0.61958400       0.37470850       0.73940900
   113  N          0.10711300       0.21834130       0.14528800
   114  N          0.89288700       0.21834130       0.35471200
   115  N          0.60711300       0.71834130       0.14528800
   116  N          0.39288700       0.71834130       0.35471200
   117  N          0.89288700       0.78165870       0.85471200
   118  N          0.10711300       0.78165870       0.64528800
   119  N          0.39288700       0.28165870       0.85471200
   120  N          0.60711300       0.28165870       0.64528800
   121  N          0.14203300       0.96159130       0.24570800
   122  N          0.85796700       0.96159130       0.25429200
   123  N          0.64203300       0.46159130       0.24570800
   124  N          0.35796700       0.46159130       0.25429200
   125  N          0.85796700       0.03840870       0.75429200
   126  N          0.14203300       0.03840870       0.74570800
   127  N          0.35796700       0.53840870       0.75429200
   128  N          0.64203300       0.53840870       0.74570800
   129  N          0.14271400       0.98041140       0.05015800
   130  N          0.85728600       0.98041140       0.44984200
   131  N          0.64271400       0.48041140       0.05015800
   132  N          0.35728600       0.48041140       0.44984200
   133  N          0.85728600       0.01958860       0.94984200
   134  N          0.14271400       0.01958860       0.55015800
   135  N          0.35728600       0.51958860       0.94984200
   136  N          0.64271400       0.51958860       0.55015800
   137  N          0.10958400       0.23040150       0.95697100
   138  N          0.89041600       0.23040150       0.54302900
   139  N          0.60958400       0.73040150       0.95697100
   140  N          0.39041600       0.73040150       0.54302900
   141  N          0.89041600       0.76959850       0.04302900
   142  N          0.10958400       0.76959850       0.45697100
   143  N          0.39041600       0.26959850       0.04302900
   144  N          0.60958400       0.26959850       0.45697100
   145  H          0.09490000       0.33310000       0.95560000
   146  H          0.90510000       0.33310000       0.54440000
   147  H          0.59490000       0.83310000       0.95560000
   148  H          0.40510000       0.83310000       0.54440000
   149  H          0.90510000       0.66690000       0.04440000
   150  H          0.09490000       0.66690000       0.45560000
   151  H          0.40510000       0.16690000       0.04440000
   152  H          0.59490000       0.16690000       0.45560000
   153  H          0.11750000       0.18470000       0.89650000
   154  H          0.88250000       0.18470000       0.60350000
   155  H          0.61750000       0.68470000       0.89650000
   156  H          0.38250000       0.68470000       0.60350000
   157  H          0.88250000       0.81530000       0.10350000
   158  H          0.11750000       0.81530000       0.39650000
   159  H          0.38250000       0.31530000       0.10350000
   160  H          0.61750000       0.31530000       0.39650000
   161  N          0.10916400       0.19815150       0.33435800
   162  N          0.89083600       0.19815150       0.16564200
   163  N          0.60916400       0.69815150       0.33435800
   164  N          0.39083600       0.69815150       0.16564200
   165  N          0.89083600       0.80184850       0.66564200
   166  N          0.10916400       0.80184850       0.83435800
   167  N          0.39083600       0.30184850       0.66564200
   168  N          0.60916400       0.30184850       0.83435800
   169  H          0.09490000       0.30170000       0.33400000
   170  H          0.90510000       0.30170000       0.16600000
   171  H          0.59490000       0.80170000       0.33400000
   172  H          0.40510000       0.80170000       0.16600000
   173  H          0.90510000       0.69830000       0.66600000
   174  H          0.09490000       0.69830000       0.83400000
   175  H          0.40510000       0.19830000       0.66600000
   176  H          0.59490000       0.19830000       0.83400000
   177  H          0.11670000       0.14160000       0.39600000
   178  H          0.88330000       0.14160000       0.10400000
   179  H          0.61670000       0.64160000       0.39600000
   180  H          0.38330000       0.64160000       0.10400000
   181  H          0.88330000       0.85840000       0.60400000
   182  H          0.11670000       0.85840000       0.89600000
   183  H          0.38330000       0.35840000       0.60400000
   184  H          0.61670000       0.35840000       0.89600000
   185  C          0.05028400       0.62432170       0.07614110
   186  C          0.94971600       0.62432170       0.42385890
   187  C          0.55028400       0.12432170       0.07614110
   188  C          0.44971600       0.12432170       0.42385890
   189  C          0.94971600       0.37567830       0.92385890
   190  C          0.05028400       0.37567830       0.57614110
   191  C          0.44971600       0.87567830       0.92385890
   192  C          0.55028400       0.87567830       0.57614110
   193  C          0.02431500       0.79862180       0.09361120
   194  C          0.97568500       0.79862180       0.40638880
   195  C          0.52431500       0.29862180       0.09361120
   196  C          0.47568500       0.29862180       0.40638880
   197  C          0.97568500       0.20137820       0.90638880
   198  C          0.02431500       0.20137820       0.59361120
   199  C          0.47568500       0.70137820       0.90638880
   200  C          0.52431500       0.70137820       0.59361120
   201  H          0.04230000       0.87710000       0.14620000
   202  H          0.95770000       0.87710000       0.35380000
   203  H          0.54230000       0.37710000       0.14620000
   204  H          0.45770000       0.37710000       0.35380000
   205  H          0.95770000       0.12290000       0.85380000
   206  H          0.04230000       0.12290000       0.64620000
   207  H          0.45770000       0.62290000       0.85380000
   208  H          0.54230000       0.62290000       0.64620000
   209  H         -0.00280000       0.76570000       0.12630000
   210  H          0.00280000       0.76570000       0.37370000
   211  H          0.49720000       0.26570000       0.12630000
   212  H          0.50280000       0.26570000       0.37370000
   213  H          0.00280000       0.23430000       0.87370000
   214  H         -0.00280000       0.23430000       0.62630000
   215  H          0.50280000       0.73430000       0.87370000
   216  H          0.49720000       0.73430000       0.62630000
   217  O          0.05827400       0.56901140       0.98584100
   218  O          0.94172600       0.56901140       0.51415900
   219  O          0.55827400       0.06901140       0.98584100
   220  O          0.44172600       0.06901140       0.51415900
   221  O          0.94172600       0.43098860       0.01415900
   222  O          0.05827400       0.43098860       0.48584100
   223  O          0.44172600       0.93098860       0.01415900
   224  O          0.55827400       0.93098860       0.48584100
   225  O          0.06370400       0.53835150       0.16912900
   226  O          0.93629600       0.53835150       0.33087100
   227  O          0.56370400       0.03835150       0.16912900
   228  O          0.43629600       0.03835150       0.33087100
   229  O          0.93629600       0.46164850       0.83087100
   230  O          0.06370400       0.46164850       0.66912900
   231  O          0.43629600       0.96164850       0.83087100
   232  O          0.56370400       0.96164850       0.66912900
   233  H          0.07830000       0.44620000       0.15580000
   234  H          0.92170000       0.44620000       0.34420000
   235  H          0.57830000       0.94620000       0.15580000
   236  H          0.42170000       0.94620000       0.34420000
   237  H          0.92170000       0.55380000       0.84420000
   238  H          0.07830000       0.55380000       0.65580000
   239  H          0.42170000       0.05380000       0.84420000
   240  H          0.57830000       0.05380000       0.65580000
   241  C          0.01135500       0.90858170      -0.01142120
   242  C          0.98864500       0.90858170       0.51142120
   243  C          0.51135500       0.40858170      -0.01142120
   244  C          0.48864500       0.40858170       0.51142120
   245  C          0.98864500       0.09141830       0.01142120
   246  C          0.01135500       0.09141830       0.48857880
   247  C          0.48864500       0.59141830       0.01142120
   248  C          0.51135500       0.59141830       0.48857880
   249  H          0.99110000       0.83480000       0.93830000
   250  H          0.00890000       0.83480000       0.56170000
   251  H          0.49110000       0.33480000       0.93830000
   252  H          0.50890000       0.33480000       0.56170000
   253  H          0.00890000       0.16520000       0.06170000
   254  H          0.99110000       0.16520000       0.43830000
   255  H          0.50890000       0.66520000       0.06170000
   256  H          0.49110000       0.66520000       0.43830000
   257  H          0.03810000       0.93360000       0.95240000
   258  H          0.96190000       0.93360000       0.54760000
   259  H          0.53810000       0.43360000       0.95240000
   260  H          0.46190000       0.43360000       0.54760000
   261  H          0.96190000       0.06640000       0.04760000
   262  H          0.03810000       0.06640000       0.45240000
   263  H          0.46190000       0.56640000       0.04760000
   264  H          0.53810000       0.56640000       0.45240000
