data_NIJMUP
_symmetry_space_group_name_H-M    'P1'
_symmetry_Int_Tables_number       1
loop_
_symmetry_equiv_pos_site_id
_symmetry_equiv_pos_as_xyz
1 x,y,z
_cell_length_a                   9.74892
_cell_length_b                   12.18162
_cell_length_c                   12.69082
_cell_angle_alpha                61.9721
_cell_angle_beta                 87.0231
_cell_angle_gamma                76.3361
loop_
_atom_site_label
_atom_site_type_symbol
_atom_site_fract_x
_atom_site_fract_y
_atom_site_fract_z
     1  C          0.10042000       0.77252000       0.75672000
     2  C          0.89958000       0.22748000       0.24328000
     3  C          0.17382000       0.80162000       0.64012000
     4  C          0.82618000       0.19838000       0.35988000
     5  C          0.23402000       0.71892000       0.59522000
     6  C          0.76598000       0.28108000       0.40478000
     7  H          0.22890000       0.63180000       0.63460000
     8  H          0.77110000       0.36820000       0.36540000
     9  C          0.30252000       0.76852000       0.48982000
    10  C          0.69748000       0.23148000       0.51018000
    11  C          0.31083000       0.89503000       0.43142000
    12  C          0.68917000       0.10497000       0.56858000
    13  H          0.36000000       0.92540000       0.36050000
    14  H          0.64000000       0.07460000       0.63950000
    15  C          0.24762000       0.97772000       0.47622000
    16  C          0.75238000       0.02228000       0.52378000
    17  H          0.25200000       0.06500000       0.43600000
    18  H          0.74800000       0.93500000       0.56400000
    19  C          0.17782000       0.93062000       0.58082000
    20  C          0.82218000       0.06938000       0.41918000
    21  C          0.09872000      -0.00478000       0.64562000
    22  C          0.90128000       0.00478000       0.35438000
    23  C          0.06862000       0.12272000       0.62032000
    24  C          0.93138000       0.87728000       0.37968000
    25  H          0.10320000       0.18380000       0.55180000
    26  H          0.89680000       0.81620000       0.44820000
    27  C          0.98697000       0.15972000       0.69662000
    28  C          0.01303000       0.84028000       0.30338000
    29  H          0.96690000       0.24630000       0.68140000
    30  H          0.03310000       0.75370000       0.31860000
    31  C          0.93538000       0.06982000       0.79502000
    32  C          0.06462000       0.93018000       0.20498000
    33  C          0.96338000       0.94192000       0.82222000
    34  C          0.03662000       0.05808000       0.17778000
    35  H          0.92650000       0.88180000       0.88980000
    36  H          0.07350000       0.11820000       0.11020000
    37  C          0.04742000       0.90492000       0.74722000
    38  C          0.95258000       0.09508000       0.25278000
    39  Cl         0.37928700       0.66752700       0.42973600
    40  Cl         0.62071300       0.33247300       0.57026400
    41  Cl         0.83201300       0.11944600       0.88821600
    42  Cl         0.16798700       0.88055400       0.11178400
    43  Cl         0.95144400       0.70580600       0.76200500
    44  Cl         0.04855600       0.29419400       0.23799500
    45  C          0.20942000       0.67682000       0.86612000
    46  C          0.79058000       0.32318000       0.13388000
    47  C          0.33842000       0.73012000       0.85804190
    48  C          0.66158000       0.26988000       0.14195810
    49  C          0.34712000       0.83962000       0.86168190
    50  C          0.65288000       0.16038000       0.13831810
    51  H          0.26600000       0.89330000       0.87260000
    52  H          0.73400000       0.10670000       0.12740000
    53  C          0.47822000       0.86862000       0.84882000
    54  C          0.52178000       0.13138000       0.15118000
    55  C          0.59852000       0.79002000       0.83462000
    56  C          0.40148000       0.20998000       0.16538000
    57  H          0.68690000       0.81220000       0.82600000
    58  H          0.31310000       0.18780000       0.17400000
    59  C          0.58902000       0.67912000       0.83302000
    60  C          0.41098000       0.32088000       0.16698000
    61  H          0.67080000       0.62440000       0.82420000
    62  H          0.32920000       0.37560000       0.17580000
    63  C          0.45862000       0.64892000       0.84431190
    64  C          0.54138000       0.35108000       0.15568810
    65  C          0.41822000       0.53802000       0.84972000
    66  C          0.58178000       0.46198000       0.15028000
    67  C          0.49792000       0.43112000       0.84182000
    68  C          0.50208000       0.56888000       0.15818000
    69  H          0.59600000       0.42250000       0.82940000
    70  H          0.40400000       0.57750000       0.17060000
    71  C          0.43223000       0.33772000       0.85232000
    72  C          0.56777000       0.66228000       0.14768000
    73  H          0.48440000       0.26580000       0.84450000
    74  H          0.51560000       0.73420000       0.15550000
    75  C          0.28953000       0.34912000       0.87442000
    76  C          0.71047000       0.65088000       0.12558000
    77  C          0.20842000       0.45432000       0.88322000
    78  C          0.79158000       0.54568000       0.11678000
    79  H          0.11140000       0.46050000       0.89930000
    80  H          0.88860000       0.53950000       0.10070000
    81  C          0.27312000       0.54942000       0.86781190
    82  C          0.72688000       0.45058000       0.13218810
    83  Cl         0.49427700       0.00416600       0.85522600
    84  Cl         0.50572300      -0.00416600       0.14477400
    85  Cl         0.20958700       0.22849600       0.89216600
    86  Cl         0.79041300       0.77150400       0.10783400
    87  Cl         0.12755600       0.64930600       0.00507500
    88  Cl         0.87244400       0.35069400      -0.00507500
    89  C          0.12683000       0.44933000       0.56682000
    90  C          0.87317000       0.55067000       0.43318000
    91  H          0.21400000       0.41470000       0.61370000
    92  H          0.78600000       0.58530000       0.38630000
    93  C          0.00603000       0.49553000       0.60972000
    94  C         -0.00603000       0.50447000       0.39028000
    95  H          0.01160000       0.49160000       0.68590000
    96  H         -0.01160000       0.50840000       0.31410000
    97  C          0.12283000       0.45253000       0.45622000
    98  C          0.87717000       0.54747000       0.54378000
    99  C          0.25483000       0.40273000       0.40893000
   100  C          0.74517000       0.59727000       0.59107000
   101  H          0.22840000       0.38200000       0.34800000
   102  H          0.77160000       0.61800000       0.65200000
   103  H          0.30930000       0.46820000       0.37320000
   104  H          0.69070000       0.53180000       0.62680000
   105  H          0.31250000       0.32530000       0.47470000
   106  H          0.68750000       0.67470000       0.52530000
