data_NILZOX
_symmetry_space_group_name_H-M    'P1'
_symmetry_Int_Tables_number       1
loop_
_symmetry_equiv_pos_site_id
_symmetry_equiv_pos_as_xyz
1 x,y,z
_cell_length_a                   7.9834
_cell_length_b                   6.0543
_cell_length_c                   22.5951
_cell_angle_alpha                90.0
_cell_angle_beta                 95.741
_cell_angle_gamma                90.0
loop_
_atom_site_label
_atom_site_type_symbol
_atom_site_fract_x
_atom_site_fract_y
_atom_site_fract_z
     1  O          0.21732000       0.66262000       0.23858500
     2  O          0.78268000       0.16262000       0.26141500
     3  O          0.78268000       0.33738000       0.76141500
     4  O          0.21732000       0.83738000       0.73858500
     5  H          0.26130000       0.51740000       0.24010000
     6  H          0.73870000       0.01740000       0.25990000
     7  H          0.73870000       0.48260000       0.75990000
     8  H          0.26130000      -0.01740000       0.74010000
     9  O          0.79778000       0.74283000       0.99118300
    10  O          0.20222000       0.24283000       0.50881700
    11  O          0.20222000       0.25717000       0.00881700
    12  O          0.79778000       0.75717000       0.49118300
    13  O          0.77228000       0.07093000       0.02611700
    14  O          0.22772000       0.57093000       0.47388300
    15  O          0.22772000       0.92907000       0.97388300
    16  O          0.77228000       0.42907000       0.52611700
    17  N          0.82678000       0.88073000       0.03060700
    18  N          0.17322000       0.38073000       0.46939300
    19  N          0.17322000       0.11927000       0.96939300
    20  N          0.82678000       0.61927000       0.53060700
    21  C          0.12112000       0.70603000       0.18809700
    22  C          0.87888000       0.20603000       0.31190300
    23  C          0.87888000       0.29397000       0.81190300
    24  C          0.12112000       0.79397000       0.68809700
    25  C          0.09382000       0.55313000       0.14181800
    26  C          0.90618000       0.05313000       0.35818200
    27  C          0.90618000       0.44687000       0.85818200
    28  C          0.09382000       0.94687000       0.64181800
    29  H          0.14110000       0.41290000       0.14593000
    30  H          0.85890000       0.91290000       0.35407000
    31  H          0.85890000       0.58710000       0.85407000
    32  H          0.14110000       0.08710000       0.64593000
    33  C         -0.00272000       0.60903000       0.09029800
    34  C          0.00272000       0.10903000       0.40970200
    35  C          0.00272000       0.39097000       0.90970200
    36  C         -0.00272000       0.89097000       0.59029800
    37  H          0.97890000       0.50750000       0.05942000
    38  H          0.02110000       0.00750000       0.44058000
    39  H          0.02110000       0.49250000       0.94058000
    40  H          0.97890000      -0.00750000       0.55942000
    41  C          0.92758000       0.81883000       0.08482700
    42  C          0.07242000       0.31883000       0.41517300
    43  C          0.07242000       0.18117000       0.91517300
    44  C          0.92758000       0.68117000       0.58482700
    45  C          0.95218000       0.97133000       0.13042900
    46  C          0.04782000       0.47133000       0.36957100
    47  C          0.04782000       0.02867000       0.86957100
    48  C          0.95218000       0.52867000       0.63042900
    49  H          0.90390000       0.11090000       0.12624000
    50  H          0.09610000       0.61090000       0.37376000
    51  H          0.09610000       0.88910000       0.87376000
    52  H          0.90390000       0.38910000       0.62624000
    53  C          0.04832000       0.91503000       0.18172800
    54  C          0.95168000       0.41503000       0.31827200
    55  C          0.95168000       0.08497000       0.81827200
    56  C          0.04832000       0.58497000       0.68172800
    57  H          0.06520000       0.01680000       0.21255000
    58  H          0.93480000       0.51680000       0.28745000
    59  H          0.93480000      -0.01680000       0.78745000
    60  H          0.06520000       0.48320000       0.71255000
    61  O          0.34902000       0.27832000       0.24838500
    62  O          0.65098000       0.77832000       0.25161500
    63  O          0.65098000       0.72168000       0.75161500
    64  O          0.34902000       0.22168000       0.74838500
    65  N          0.40732000       0.24602000       0.30470600
    66  N          0.59268000       0.74602000       0.19529400
    67  N          0.59268000       0.75398000       0.69529400
    68  N          0.40732000       0.25398000       0.80470600
    69  C          0.49572000       0.40603000       0.33525800
    70  C          0.50428000       0.90603000       0.16474200
    71  C          0.50428000       0.59397000       0.66474200
    72  C          0.49572000       0.09397000       0.83525800
    73  H          0.51570000       0.53920000       0.31670000
    74  H          0.48430000       0.03920000       0.18330000
    75  H          0.48430000       0.46080000       0.68330000
    76  H          0.51570000       0.96080000       0.81670000
    77  C          0.55632000       0.37363000       0.39350800
    78  C          0.44368000       0.87363000       0.10649200
    79  C          0.44368000       0.62637000       0.60649200
    80  C          0.55632000       0.12637000       0.89350800
    81  H          0.61600000       0.48520000       0.41454000
    82  H          0.38400000      -0.01480000       0.08546000
    83  H          0.38400000       0.51480000       0.58546000
    84  H          0.61600000       0.01480000       0.91454000
    85  C          0.52862000       0.17553000       0.42084800
    86  C          0.47138000       0.67553000       0.07915200
    87  C          0.47138000       0.82447000       0.57915200
    88  C          0.52862000       0.32447000       0.92084800
    89  H          0.56990000       0.15130000       0.46026000
    90  H          0.43010000       0.65130000       0.03974000
    91  H          0.43010000       0.84870000       0.53974000
    92  H          0.56990000       0.34870000       0.96026000
    93  C          0.43873000       0.01403000       0.38870900
    94  C          0.56127000       0.51403000       0.11129100
    95  C          0.56127000      -0.01403000       0.61129100
    96  C          0.43873000       0.48597000       0.88870900
    97  H          0.41870000       0.87930000       0.40647000
    98  H          0.58130000       0.37930000       0.09353000
    99  H          0.58130000       0.12070000       0.59353000
   100  H          0.41870000       0.62070000       0.90647000
   101  C          0.37852000       0.05113000       0.33047800
   102  C          0.62148000       0.55113000       0.16952200
   103  C          0.62148000       0.94887000       0.66952200
   104  C          0.37852000       0.44887000       0.83047800
   105  H          0.31790000       0.94160000       0.30887000
   106  H          0.68210000       0.44160000       0.19113000
   107  H          0.68210000       0.05840000       0.69113000
   108  H          0.31790000       0.55840000       0.80887000
