data_NIMBUK
_symmetry_space_group_name_H-M    'P1'
_symmetry_Int_Tables_number       1
loop_
_symmetry_equiv_pos_site_id
_symmetry_equiv_pos_as_xyz
1 x,y,z
_cell_length_a                   10.02333
_cell_length_b                   10.70983
_cell_length_c                   18.90125
_cell_angle_alpha                75.38701
_cell_angle_beta                 87.43701
_cell_angle_gamma                82.08401
loop_
_atom_site_label
_atom_site_type_symbol
_atom_site_fract_x
_atom_site_fract_y
_atom_site_fract_z
     1  I          0.63739200       0.75730200       0.19997200
     2  I          0.36260800       0.24269800       0.80002800
     3  I          0.90871200       0.86734200       0.09043200
     4  I          0.09128800       0.13265800       0.90956800
     5  C          0.71767130       0.66259120       0.11905700
     6  C          0.28232870       0.33740880       0.88094300
     7  C          0.65648140       0.56082130       0.10724800
     8  C          0.34351860       0.43917870       0.89275200
     9  H          0.58122800       0.53215900       0.13605300
    10  H          0.41877200       0.46784100       0.86394700
    11  C          0.70782150       0.50193140       0.05232800
    12  C          0.29217850       0.49806860       0.94767200
    13  H          0.66830900       0.43110800       0.04421700
    14  H          0.33169100       0.56889200       0.95578300
    15  C          0.81641140       0.54547140       0.00907800
    16  C          0.18358860       0.45452860       0.99092200
    17  H          0.85023200       0.50392800       0.97185700
    18  H          0.14976800       0.49607200       0.02814300
    19  C          0.87587130       0.64905130       0.01973700
    20  C          0.12412870       0.35094870       0.98026300
    21  H          0.94876600       0.68012400       0.98963300
    22  H          0.05123400       0.31987600       0.01036700
    23  C          0.82582130       0.70593120       0.07562700
    24  C          0.17417870       0.29406880       0.92437300
    25  C          0.71794130       0.98125120       0.07730700
    26  C          0.28205870       0.01874880       0.92269300
    27  C          0.70244140       0.09893130       0.02471700
    28  C          0.29755860       0.90106870       0.97528300
    29  H          0.77682000       0.12928200      -0.00430600
    30  H          0.22318000       0.87071800       0.00430600
    31  C          0.57525150       0.17127140       0.01557800
    32  C          0.42474850       0.82872860       0.98442200
    33  H          0.56294400       0.25300700       0.98068900
    34  H          0.43705600       0.74699300       0.01931100
    35  C          0.46582140       0.12514140       0.05702800
    36  C          0.53417860       0.87485860       0.94297200
    37  H          0.37953100       0.17552800       0.05002700
    38  H          0.62046900       0.82447200       0.94997300
    39  C          0.48167130       0.00602140       0.10853700
    40  C          0.51832870      -0.00602140       0.89146300
    41  H          0.40654300       0.97346300       0.13588600
    42  H          0.59345700       0.02653700       0.86411400
    43  C          0.60944130       0.93539120       0.11928700
    44  C          0.39055870       0.06460880       0.88071300
    45  O          0.22252900       0.50931900       0.51381500
    46  O          0.77747100       0.49068100       0.48618500
    47  N          0.68812120       0.50842120       0.28317600
    48  N          0.31187880       0.49157880       0.71682400
    49  N          0.49518120       0.91642120       0.27874600
    50  N          0.50481880       0.08357880       0.72125400
    51  C          0.78310140       0.41471140       0.27075700
    52  C          0.21689860       0.58528860       0.72924300
    53  H          0.84636400       0.43678200       0.23218000
    54  H          0.15363600       0.56321800       0.76782000
    55  C          0.79230140       0.28703140       0.31209700
    56  C          0.20769860       0.71296860       0.68790300
    57  H          0.86023900       0.22280500       0.30171300
    58  H          0.13976100       0.77719500       0.69828700
    59  C          0.70103130       0.25453130       0.36869700
    60  C          0.29896870       0.74546870       0.63130300
    61  H          0.70577300       0.16765000       0.39779500
    62  H          0.29422700       0.83235000       0.60220500
    63  C          0.60173130       0.35093130       0.38259700
    64  C          0.39826870       0.64906870       0.61740300
    65  C          0.60025140       0.47669130       0.33783700
    66  C          0.39974860       0.52330870       0.66216300
    67  H          0.53329700       0.54304400       0.34673500
    68  H          0.46670300       0.45695600       0.65326500
    69  C          0.50206140       0.32306130       0.43889700
    70  C          0.49793860       0.67693870       0.56110300
    71  C          0.41578140       0.30007130       0.48444700
    72  C          0.58421860       0.69992870       0.51555300
    73  C          0.31038130       0.27825130       0.53793700
    74  C          0.68961870       0.72174870       0.46206300
    75  C          0.29019140       0.15407140       0.58025700
    76  C          0.70980860       0.84592860       0.41974300
    77  H          0.34876000       0.08025000       0.57348100
    78  H          0.65124000       0.91975000       0.42651900
    79  C          0.18600140       0.13634140       0.63212800
    80  C          0.81399860       0.86365860       0.36787200
    81  H          0.17616900       0.05096300       0.66017200
    82  H          0.82383100       0.94903700       0.33982800
    83  C          0.09644140       0.24101140       0.64353700
    84  C          0.90355860       0.75898860       0.35646300
    85  H          0.02589700       0.22835700       0.67884900
    86  H          0.97410300       0.77164300       0.32115100
    87  C          0.11359130       0.36534130       0.60136700
    88  C          0.88640870       0.63465870       0.39863300
    89  C          0.21926130       0.38087130       0.55040700
    90  C          0.78073870       0.61912870       0.44959300
    91  C          0.04412130       0.49565130       0.59551700
    92  C          0.95587870       0.50434870       0.40448300
    93  C          0.93320870       0.54958140       0.63000700
    94  C          0.06679130       0.45041860       0.36999300
    95  H          0.88271000       0.49599600       0.66609300
    96  H          0.11729000       0.50400400       0.33390700
    97  C          0.89853860       0.68365140       0.61018700
    98  C          0.10146140       0.31634860       0.38981300
    99  H          0.82355600       0.72180400       0.63348300
   100  H          0.17644400       0.27819600       0.36651700
   101  C          0.97092860       0.76405140       0.55687700
   102  C          0.02907140       0.23594860       0.44312300
   103  H          0.94434600       0.85546900       0.54479700
   104  H          0.05565400       0.14453100       0.45520300
   105  C          0.08239130       0.71205130       0.52080700
   106  C          0.91760870       0.28794870       0.47919300
   107  C          0.11506130       0.57737130       0.54192700
   108  C          0.88493870       0.42262870       0.45807300
   109  C          0.16373140       0.78984130       0.46824700
   110  C          0.83626860       0.21015870       0.53175300
   111  C          0.24074140       0.84842130       0.42656700
   112  C          0.75925860       0.15157870       0.57343300
   113  C          0.33407130       0.91637130       0.37703700
   114  C          0.66592870       0.08362870       0.62296300
   115  C          0.35715140       0.04191130       0.37740700
   116  C          0.64284860       0.95808870       0.62259300
   117  H          0.31214500       0.08440400       0.41189100
   118  H          0.68785500       0.91559600       0.58810900
   119  C          0.44645140       0.10366130       0.32686800
   120  C          0.55354860       0.89633870       0.67313200
   121  H          0.46055500       0.19037100       0.32495600
   122  H          0.53944500       0.80962900       0.67504400
   123  C          0.51486140       0.03768140       0.27920700
   124  C          0.48513860       0.96231860       0.72079300
   125  H          0.57793600       0.07962300       0.24563400
   126  H          0.42206400       0.92037700       0.75436600
   127  C          0.40559140       0.85838130       0.32567700
   128  C          0.59440860       0.14161870       0.67432300
   129  H          0.38961100       0.77370800       0.32413600
   130  H          0.61038900       0.22629200       0.67586400
   131  S          0.21982300       0.65860300       0.16598200
   132  S          0.78017700       0.34139700       0.83401800
   133  F          0.33200120       0.43918100       0.25003500
   134  F          0.66799880       0.56081900       0.74996500
   135  F          0.15515110       0.42174100       0.19495600
   136  F          0.84484890       0.57825900       0.80504400
   137  F          0.34206100       0.44513100       0.13510500
   138  F          0.65793900       0.55486900       0.86489500
   139  O          0.34907120       0.70516130       0.15665700
   140  O          0.65092880       0.29483870       0.84334300
   141  O          0.14397100       0.68648100       0.09870600
   142  O          0.85602900       0.31351900       0.90129400
   143  O          0.14060130       0.68081110       0.22785600
   144  O          0.85939870       0.31918890       0.77214400
   145  C          0.26364150       0.48170150       0.18745800
   146  C          0.73635850       0.51829850       0.81254200
   147  S          0.95507700       0.14480300       0.15680200
   148  S          0.04492300       0.85519700       0.84319800
   149  F          0.21263100       0.14894110       0.17408700
   150  F          0.78736900       0.85105890       0.82591300
   151  F          0.14370120       0.96458900       0.22308600
   152  F          0.85629880       0.03541100       0.77691400
   153  F          0.09524100       0.12489110       0.27372500
   154  F          0.90475900       0.87510890       0.72627500
   155  O         -0.00908110       0.09723100       0.09155500
   156  O          0.00908110       0.90276900       0.90844500
   157  O          0.85664890       0.07628110       0.20323600
   158  O          0.14335110       0.92371890       0.79676400
   159  O          0.93676890       0.28375100       0.14402600
   160  O          0.06323110       0.71624900       0.85597400
   161  C          0.10966150       0.09289150       0.20971900
   162  C          0.89033850       0.90710850       0.79028100
