data_NIMDIW
_symmetry_space_group_name_H-M    'P1'
_symmetry_Int_Tables_number       1
loop_
_symmetry_equiv_pos_site_id
_symmetry_equiv_pos_as_xyz
1 x,y,z
_cell_length_a                   9.889913
_cell_length_b                   10.11681
_cell_length_c                   10.56739
_cell_angle_alpha                86.7029
_cell_angle_beta                 88.22211
_cell_angle_gamma                72.2069
loop_
_atom_site_label
_atom_site_type_symbol
_atom_site_fract_x
_atom_site_fract_y
_atom_site_fract_z
     1  N          0.22679100       0.64238100       0.56500100
     2  N          0.77320900       0.35761900       0.43499900
     3  O          0.27469100       0.38243100       0.49170900
     4  O          0.72530900       0.61756900       0.50829100
     5  C          0.19729150       0.77358130       0.59498130
     6  C          0.80270850       0.22641870       0.40501870
     7  C          0.28412000       0.81155140       0.67731140
     8  C          0.71588000       0.18844860       0.32268860
     9  C          0.39922000       0.71276140       0.72726130
    10  C          0.60078000       0.28723860       0.27273870
    11  C          0.55192000       0.46632000       0.74026140
    12  C          0.44808000       0.53368000       0.25973860
    13  C          0.57522000       0.33412000       0.70388150
    14  C          0.42478000       0.66588000       0.29611850
    15  C          0.48374150       0.30060140       0.62124140
    16  C          0.51625850       0.69939860       0.37875860
    17  C          0.36798130       0.40156120       0.57296110
    18  C          0.63201870       0.59843880       0.42703890
    19  C          0.34192120       0.53916120       0.61053110
    20  C          0.65807880       0.46083880       0.38946890
    21  C          0.43256130       0.57310130       0.69487120
    22  C          0.56743870       0.42689870       0.30512880
    23  H          0.16651600       0.62291600       0.50811500
    24  H          0.83348400       0.37708400       0.49188500
    25  H          0.11171500       0.83871500       0.55591300
    26  H          0.88828500       0.16128500       0.44408700
    27  H          0.25971600       0.90431800       0.69671500
    28  H          0.74028400       0.09568200       0.30328500
    29  H          0.45801700       0.73661600       0.78751500
    30  H          0.54198300       0.26338400       0.21248500
    31  H          0.61531800       0.48761700       0.79691600
    32  H          0.38468200       0.51238300       0.20308400
    33  H          0.65381800       0.26161800       0.73331600
    34  H          0.34618200       0.73838200       0.26668400
    35  H          0.50291600       0.20731700       0.59551400
    36  H          0.49708400       0.79268300       0.40448600
    37  H          0.30211900       0.28882100       0.46981700
    38  H          0.69788100       0.71117900       0.53018300
    39  O          0.57177140       0.92528000       0.81012130
    40  O          0.42822860       0.07472000       0.18987870
    41  O          0.86961900       0.91442100       0.52503800
    42  O          0.13038100       0.08557900       0.47496200
    43  O          0.67217100       0.86757900       0.58974100
    44  O          0.32782900       0.13242100       0.41025900
    45  C          0.68072000       0.97670850       0.82697140
    46  C          0.31928000       0.02329150       0.17302860
    47  C          0.69082000       0.03292000       0.94243150
    48  C          0.30918000       0.96708000       0.05756850
    49  C          0.79822000       0.08862000       0.96148140
    50  C          0.20178000       0.91138000       0.03851860
    51  C          0.89772000       0.09028150       0.86732130
    52  C          0.10228000       0.90971850       0.13267870
    53  C          0.88901130       0.03379130       0.75330120
    54  C          0.11098870       0.96620870       0.24669880
    55  C          0.78149130       0.97606880       0.73071120
    56  C          0.21850870       0.02393120       0.26928880
    57  C          0.77428130       0.91513890       0.60719120
    58  C          0.22571870       0.08486110       0.39280880
    59  H          0.58762500       0.89297400       0.72372500
    60  H          0.41237500       0.10702600       0.27627500
    61  H          0.62442000       0.03131900       0.00441800
    62  H          0.37558000       0.96868100      -0.00441800
    63  H          0.80521800       0.12721800       0.04281700
    64  H          0.19478200       0.87278200       0.95718300
    65  H          0.97251700       0.13201700       0.88081500
    66  H          0.02748300       0.86798300       0.11918500
    67  H          0.95301500       0.03721500       0.68341400
    68  H          0.04698500       0.96278500       0.31658600
    69  O          0.91983870       0.60920110       0.72319110
    70  O          0.08016130       0.39079890       0.27680890
    71  O          0.15191100       0.19390900       0.67667900
    72  O          0.84808900       0.80609100       0.32332100
    73  O          0.96413900       0.37129100       0.61893900
    74  O          0.03586100       0.62870900       0.38106100
    75  C          0.02985150       0.54044140       0.79774120
    76  C          0.97014850       0.45955860       0.20225880
    77  C          0.06952000       0.61542000       0.88850140
    78  C          0.93048000       0.38458000       0.11149860
    79  C          0.17962000       0.55172000       0.96722000
    80  C          0.82038000       0.44828000       0.03278000
    81  C          0.25512000       0.41262000       0.95742000
    82  C          0.74488000       0.58738000       0.04258000
    83  C          0.21782000       0.33762000       0.86722130
    84  C          0.78218000       0.66238000       0.13277870
    85  C          0.10486130       0.39938130       0.78621110
    86  C          0.89513870       0.60061870       0.21378890
    87  C          0.06803130       0.31971130       0.68740110
    88  C          0.93196870       0.68028870       0.31259890
    89  H          0.90627600       0.54532500       0.66892200
    90  H          0.09372400       0.45467500       0.33107800
    91  H          0.01221900       0.71372100       0.89381800
    92  H          0.98778100       0.28627900       0.10618200
    93  H          0.20371900       0.60522000       0.03271800
    94  H          0.79628100       0.39478000       0.96728200
    95  H          0.33282000       0.36811900       0.01151800
    96  H          0.66718000       0.63188100      -0.01151800
    97  H          0.26901700       0.24231800       0.85811500
    98  H          0.73098300       0.75768200       0.14188500
    99  H          0.13512000       0.15072000       0.59071900
   100  H          0.86488000       0.84928000       0.40928100
