data_NINPIM
_symmetry_space_group_name_H-M    'P1'
_symmetry_Int_Tables_number       1
loop_
_symmetry_equiv_pos_site_id
_symmetry_equiv_pos_as_xyz
1 x,y,z
_cell_length_a                   4.94244
_cell_length_b                   14.32851
_cell_length_c                   23.884118
_cell_angle_alpha                82.4686
_cell_angle_beta                 89.4907
_cell_angle_gamma                84.5746
loop_
_atom_site_label
_atom_site_type_symbol
_atom_site_fract_x
_atom_site_fract_y
_atom_site_fract_z
     1  C          0.95499000       0.86224000       0.47102000
     2  C          0.04501000       0.13776000       0.52898000
     3  C          0.91678700       0.88914000       0.52443000
     4  C          0.08321300       0.11086000       0.47557000
     5  H          0.77550000       0.93430000       0.53050000
     6  H          0.22450000       0.06570000       0.46950000
     7  C          0.08101300       0.85084000       0.56753000
     8  C          0.91898700       0.14916000       0.43247000
     9  H          0.05370000       0.86990000       0.60300000
    10  H          0.94630000       0.13010000       0.39700000
    11  C          0.29251100       0.78234000       0.55932000
    12  C          0.70748900       0.21766000       0.44068000
    13  H          0.40650000       0.75650000       0.58930000
    14  H          0.59350000       0.24350000       0.41070000
    15  C          0.33381000       0.75264000       0.50652000
    16  C          0.66619000       0.24736000       0.49348000
    17  C          0.16901000       0.79434000       0.46152000
    18  C          0.83099000       0.20566000       0.53848000
    19  C          0.76899000       0.90154000       0.42573000
    20  C          0.23101000       0.09846000       0.57427000
    21  H          0.62290000       0.94300000       0.43420000
    22  H          0.37710000       0.05700000       0.56580000
    23  C          0.59749000       0.92464000       0.33442000
    24  C          0.40251000       0.07536000       0.66558000
    25  C          0.50868900       0.87214000       0.29482000
    26  C          0.49131100       0.12786000       0.70518000
    27  H          0.58010000       0.80980000       0.29450000
    28  H          0.41990000       0.19020000       0.70550000
    29  C          0.31578900       0.91224000       0.25622000
    30  C          0.68421100       0.08776000       0.74378000
    31  H          0.24790000       0.87690000       0.23050000
    32  H          0.75210000       0.12310000       0.76950000
    33  C          0.22388700       0.00594000       0.25633000
    34  C          0.77611300      -0.00594000       0.74367000
    35  H          0.09620000       0.03340000       0.22920000
    36  H          0.90380000       0.96660000       0.77080000
    37  C          0.49168800       0.01924000       0.33083000
    38  C          0.50831200       0.98076000       0.66917000
    39  H          0.55370000       0.05620000       0.35630000
    40  H          0.44630000       0.94380000       0.64370000
    41  C          0.69571300       0.63535000       0.53793000
    42  C          0.30428700       0.36465000       0.46207000
    43  H          0.79120000       0.67940000       0.55520000
    44  H          0.20880000       0.32060000       0.44480000
    45  H          0.82430000       0.59060000       0.52290000
    46  H          0.17570000       0.40940000       0.47710000
    47  H          0.58450000       0.60250000       0.56560000
    48  H          0.41550000       0.39750000       0.43440000
    49  N          0.30768900       0.05883000       0.29292000
    50  N          0.69231100       0.94117000       0.70708000
    51  N          0.79062000       0.88343000       0.37492000
    52  N          0.20938000       0.11657000       0.62508000
    53  O          0.21868000       0.76553000       0.41054170
    54  O          0.78132000       0.23447000       0.58945830
    55  O          0.52868000       0.68493000       0.49338160
    56  O          0.47132000       0.31507000       0.50661840
    57  H          0.10411000       0.78840000       0.38820000
    58  H          0.89589000       0.21160000       0.61180000
    59  C          0.11601000       0.60373000       0.28332000
    60  C          0.88399000       0.39627000       0.71668000
    61  C          0.96641000       0.54904000       0.32172000
    62  C          0.03359000       0.45096000       0.67828000
    63  C          0.00071000       0.45283000       0.32032000
    64  C         -0.00071000       0.54717000       0.67968000
    65  C          0.17791000       0.41064000       0.28422000
    66  C          0.82209000       0.58936000       0.71578000
    67  C          0.32151000       0.46964000       0.24792000
    68  C          0.67849000       0.53036000       0.75208000
    69  C          0.29451000       0.56694000       0.24572000
    70  C          0.70549000       0.43306000       0.75428000
    71  F          0.08716000       0.69832000       0.28335140
    72  F          0.91284000       0.30168000       0.71664860
    73  F          0.85304000       0.39772000       0.35638130
    74  F          0.14696000       0.60228000       0.64361870
    75  F          0.49837000       0.43022000       0.21222140
    76  F          0.50163000       0.56978000       0.78777860
    77  I          0.70641300       0.60905300       0.37917200
    78  I          0.29358700       0.39094700       0.62082800
    79  I          0.22639800       0.26312200       0.28692200
    80  I          0.77360200       0.73687800       0.71307800
    81  I          0.51732700       0.65406300       0.18877200
    82  I          0.48267300       0.34593700       0.81122800
    83  C          0.33441200       0.30085000       0.03653000
    84  C          0.66558800       0.69915000       0.96347000
    85  C          0.25551800       0.39526000       0.04464000
    86  C          0.74448200       0.60474000       0.95536000
    87  H          0.33650000       0.44460000       0.02390000
    88  H          0.66350000       0.55540000       0.97610000
    89  C          0.06051800       0.41297000       0.08284000
    90  C          0.93948200       0.58703000       0.91716000
    91  H          0.00830000       0.47550000       0.08750000
    92  H         -0.00830000       0.52450000       0.91250000
    93  C          0.93868600       0.34436000       0.11433000
    94  C          0.06131400       0.65564000       0.88567000
    95  H          0.80720000       0.35960000       0.14050000
    96  H          0.19280000       0.64040000       0.85950000
    97  C          0.00921100       0.25176000       0.10743000
    98  C         -0.00921100       0.74824000       0.89257000
    99  C          0.21021100       0.22965000       0.06813000
   100  C          0.78978900       0.77035000       0.93187000
   101  C          0.54581300       0.28035000      -0.00413000
   102  C          0.45418700       0.71965000       0.00413000
   103  H          0.62080000       0.33020000       0.97420000
   104  H          0.37920000       0.66980000       0.02580000
   105  C          0.83251100       0.17454000       0.94918000
   106  C          0.16748900       0.82546000       0.05082000
   107  C          0.86801300       0.08135000       0.93857000
   108  C          0.13198700       0.91865000       0.06143000
   109  H          0.76180000       0.03660000       0.95700000
   110  H          0.23820000       0.96340000       0.04300000
   111  C          0.06441300       0.05555000       0.90007000
   112  C          0.93558700       0.94445000       0.09993000
   113  H          0.09400000      -0.00670000       0.89250000
   114  H          0.90600000       0.00670000       0.10750000
   115  C          0.21281300       0.12406000       0.87367000
   116  C          0.78718700       0.87594000       0.12633000
   117  H          0.34260000       0.10680000       0.84760000
   118  H          0.65740000       0.89320000       0.15240000
   119  C         -0.00478800       0.23715000       0.92038000
   120  C          0.00478800       0.76285000       0.07962000
   121  H          0.97280000       0.29970000       0.92740000
   122  H          0.02720000       0.70030000       0.07260000
   123  C          0.68768700       0.19197000       0.17513000
   124  C          0.31231300       0.80803000       0.82487000
   125  H          0.76220000       0.21570000       0.20680000
   126  H          0.23780000       0.78430000       0.79320000
   127  H          0.61130000       0.13360000       0.18770000
   128  H          0.38870000       0.86640000       0.81230000
   129  H          0.54830000       0.23730000       0.15760000
   130  H          0.45170000       0.76270000       0.84240000
   131  N          0.18291000       0.21394000       0.88298000
   132  N          0.81709000       0.78606000       0.11702000
   133  N          0.63019000       0.19644000       0.98918000
   134  N          0.36981000       0.80356000       0.01082000
   135  O          0.28091000       0.13764000       0.06402000
   136  O          0.71909000       0.86236000       0.93598000
   137  O          0.89801000       0.17554000       0.13502000
   138  O          0.10199000       0.82446000       0.86498000
   139  H          0.39117000       0.13960000       0.04230000
   140  H          0.60883000       0.86040000       0.95770000
