data_NINSAH
_symmetry_space_group_name_H-M    'P1'
_symmetry_Int_Tables_number       1
loop_
_symmetry_equiv_pos_site_id
_symmetry_equiv_pos_as_xyz
1 x,y,z
_cell_length_a                   19.5972
_cell_length_b                   7.16297
_cell_length_c                   15.549918
_cell_angle_alpha                90.0
_cell_angle_beta                 107.43112
_cell_angle_gamma                90.0
loop_
_atom_site_label
_atom_site_type_symbol
_atom_site_fract_x
_atom_site_fract_y
_atom_site_fract_z
     1  C          0.12762000       0.53366000       0.84263000
     2  C          0.87238000       0.03366000       0.65737000
     3  C          0.87238000       0.46634000       0.15737000
     4  C          0.12762000       0.96634000       0.34263000
     5  H          0.13630000       0.50800000       0.90360000
     6  H          0.86370000       0.00800000       0.59640000
     7  H          0.86370000       0.49200000       0.09640000
     8  H          0.13630000      -0.00800000       0.40360000
     9  C          0.04866190       0.63305000       0.70233000
    10  C          0.95133810       0.13305000       0.79767000
    11  C          0.95133810       0.36695000       0.29767000
    12  C          0.04866190       0.86695000       0.20233000
    13  H          0.00340000       0.67450000       0.66920000
    14  H         -0.00340000       0.17450000       0.83080000
    15  H         -0.00340000       0.32550000       0.33080000
    16  H          0.00340000       0.82550000       0.16920000
    17  C          0.02902000       0.73597000       0.51993000
    18  C          0.97098000       0.23597000       0.98007000
    19  C          0.97098000       0.26403000       0.48007000
    20  C          0.02902000       0.76403000       0.01993000
    21  H          0.98980000       0.65290000       0.51630000
    22  H          0.01020000       0.15290000       0.98370000
    23  H          0.01020000       0.34710000       0.48370000
    24  H          0.98980000       0.84710000       0.01630000
    25  H          0.03140000       0.76180000       0.46030000
    26  H          0.96860000       0.26180000       0.03970000
    27  H          0.96860000       0.23820000       0.53970000
    28  H          0.03140000       0.73820000       0.96030000
    29  H          0.02200000       0.85040000       0.54820000
    30  H          0.97800000       0.35040000       0.95180000
    31  H          0.97800000       0.14960000       0.45180000
    32  H          0.02200000       0.64960000       0.04820000
    33  C          0.06222000       0.59106000       0.79233000
    34  C          0.93778000       0.09106000       0.70767000
    35  C          0.93778000       0.40894000       0.20767000
    36  C          0.06222000       0.90894000       0.29233000
    37  H          0.02570000       0.60240000       0.81890000
    38  H          0.97430000       0.10240000       0.68110000
    39  H          0.97430000       0.39760000       0.18110000
    40  H          0.02570000       0.89760000       0.31890000
    41  H          0.25420000       0.49550000       0.69930000
    42  H          0.74580000      -0.00450000       0.80070000
    43  H          0.74580000       0.50450000       0.30070000
    44  H          0.25420000       0.00450000       0.19930000
    45  O          0.21950160       0.53434000       0.66732180
    46  O          0.78049840       0.03434000       0.83267820
    47  O          0.78049840       0.46566000       0.33267820
    48  O          0.21950160       0.96566000       0.16732180
    49  N          0.30509140       0.43374000       0.82269180
    50  N          0.69490860       0.93374000       0.67730820
    51  N          0.69490860       0.56626000       0.17730820
    52  N          0.30509140       0.06626000       0.32269180
    53  O          0.09409130       0.65084000       0.57163170
    54  O          0.90590870       0.15084000       0.92836830
    55  O          0.90590870       0.34916000       0.42836830
    56  O          0.09409130       0.84916000       0.07163170
    57  C          0.25302190       0.45615000       0.85622000
    58  C          0.74697810       0.95615000       0.64378000
    59  C          0.74697810       0.54385000       0.14378000
    60  C          0.25302190       0.04385000       0.35622000
    61  H          0.26100000       0.43510000       0.91750000
    62  H          0.73900000       0.93510000       0.58250000
    63  H          0.73900000       0.56490000       0.08250000
    64  H          0.26100000       0.06490000       0.41750000
    65  C          0.16947180       0.55235000       0.71082000
    66  C          0.83052820       0.05235000       0.78918000
    67  C          0.83052820       0.44765000       0.28918000
    68  C          0.16947180       0.94765000       0.21082000
    69  C          0.18287170       0.51275000       0.80212000
    70  C          0.81712830       0.01275000       0.69788000
    71  C          0.81712830       0.48725000       0.19788000
    72  C          0.18287170      -0.01275000       0.30212000
    73  C          0.10132180       0.61445000       0.66062000
    74  C          0.89867820       0.11445000       0.83938000
    75  C          0.89867820       0.38555000       0.33938000
    76  C          0.10132180       0.88555000       0.16062000
    77  C          0.37343170       0.37125000       0.87582000
    78  C          0.62656830       0.87125000       0.62418000
    79  C          0.62656830       0.62875000       0.12418000
    80  C          0.37343170       0.12875000       0.37582000
    81  C          0.42572000       0.36596000       0.83243000
    82  C          0.57428000       0.86596000       0.66757000
    83  C          0.57428000       0.63404000       0.16757000
    84  C          0.42572000       0.13404000       0.33243000
    85  H          0.41310000       0.40260000       0.77230000
    86  H          0.58690000       0.90260000       0.72770000
    87  H          0.58690000       0.59740000       0.22770000
    88  H          0.41310000       0.09740000       0.27230000
    89  C          0.50812000       0.25556000       0.95613000
    90  C          0.49188000       0.75556000       0.54387000
    91  C          0.49188000       0.74444000       0.04387000
    92  C          0.50812000       0.24444000       0.45613000
    93  H          0.55430000       0.21360000       0.98430000
    94  H          0.44570000       0.71360000       0.51570000
    95  H          0.44570000       0.78640000       0.01570000
    96  H          0.55430000       0.28640000       0.48430000
    97  C          0.46092000       0.25486000       0.00463000
    98  C          0.53908000       0.75486000       0.49537000
    99  C          0.53908000       0.74514000      -0.00463000
   100  C          0.46092000       0.24514000       0.50463000
   101  H          0.47510000       0.21490000       0.06430000
   102  H          0.52490000       0.71490000       0.43570000
   103  H          0.52490000       0.78510000       0.93570000
   104  H          0.47510000       0.28510000       0.56430000
   105  C          0.39124190       0.31446000       0.96423000
   106  C          0.60875810       0.81446000       0.53577000
   107  C          0.60875810       0.68554000       0.03577000
   108  C          0.39124190       0.18554000       0.46423000
   109  H          0.35780000       0.31590000      -0.00420000
   110  H          0.64220000       0.81590000       0.50420000
   111  H          0.64220000       0.68410000       0.00420000
   112  H          0.35780000       0.18410000       0.49580000
   113  N          0.49276160       0.31175000       0.87133000
   114  N          0.50723840       0.81175000       0.62867000
   115  N          0.50723840       0.68825000       0.12867000
   116  N          0.49276160       0.18825000       0.37133000
   117  I          0.38890200       0.61224400       0.19525200
   118  I          0.61109800       0.11224400       0.30474800
   119  I          0.61109800       0.38775600       0.80474800
   120  I          0.38890200       0.88775600       0.69525200
   121  I          0.22440200       0.53672400       0.47209200
   122  I          0.77559800       0.03672400       0.02790800
   123  I          0.77559800       0.46327600       0.52790800
   124  I          0.22440200       0.96327600       0.97209200
   125  F          0.11725120       0.37513000       0.11971170
   126  F          0.88274880       0.87513000       0.38028830
   127  F          0.88274880       0.62487000       0.88028830
   128  F          0.11725120       0.12487000       0.61971170
   129  F          0.11084120       0.41334000       0.28935180
   130  F          0.88915880       0.91334000       0.21064820
   131  F          0.88915880       0.58666000       0.71064820
   132  F          0.11084120       0.08666000       0.78935180
   133  F          0.34815120       0.62273000       0.38134140
   134  F          0.65184880       0.12273000       0.11865860
   135  F          0.65184880       0.37727000       0.61865860
   136  F          0.34815120       0.87727000       0.88134140
   137  F          0.23722140       0.46023000       0.07832150
   138  F          0.76277860       0.96023000       0.42167850
   139  F          0.76277860       0.53977000       0.92167850
   140  F          0.23722140       0.03977000       0.57832150
   141  C          0.29585190       0.54305000       0.22912000
   142  C          0.70414810       0.04305000       0.27088000
   143  C          0.70414810       0.45695000       0.77088000
   144  C          0.29585190       0.95695000       0.72912000
   145  C          0.22992000       0.51675000       0.34013000
   146  C          0.77008000       0.01675000       0.15987000
   147  C          0.77008000       0.48325000       0.65987000
   148  C          0.22992000      -0.01675000       0.84013000
   149  C          0.23592000       0.47965000       0.16462000
   150  C          0.76408000       0.97965000       0.33538000
   151  C          0.76408000       0.52035000       0.83538000
   152  C          0.23592000       0.02035000       0.66462000
   153  C          0.29072000       0.55955000       0.31572000
   154  C          0.70928000       0.05955000       0.18428000
   155  C          0.70928000       0.44045000       0.68428000
   156  C          0.29072000       0.94045000       0.81572000
   157  C          0.17212000       0.45555000       0.27113000
   158  C          0.82788000       0.95555000       0.22887000
   159  C          0.82788000       0.54445000       0.72887000
   160  C          0.17212000       0.04445000       0.77113000
   161  C          0.17427190       0.43715000       0.18543000
   162  C          0.82572810       0.93715000       0.31457000
   163  C          0.82572810       0.56285000       0.81457000
   164  C          0.17427190       0.06285000       0.68543000
