data_NINSOV
_symmetry_space_group_name_H-M    'P1'
_symmetry_Int_Tables_number       1
loop_
_symmetry_equiv_pos_site_id
_symmetry_equiv_pos_as_xyz
1 x,y,z
_cell_length_a                   16.66736
_cell_length_b                   4.67232
_cell_length_c                   19.09639
_cell_angle_alpha                90.0
_cell_angle_beta                 92.0044
_cell_angle_gamma                90.0
loop_
_atom_site_label
_atom_site_type_symbol
_atom_site_fract_x
_atom_site_fract_y
_atom_site_fract_z
     1  H          0.94880000       0.45480000       0.42120000
     2  H          0.55120000       0.95480000       0.07880000
     3  H          0.05120000       0.54520000       0.57880000
     4  H          0.44880000       0.04520000       0.92120000
     5  C          0.94042840       0.66586000       0.30494150
     6  C          0.55957160       0.16586000       0.19505850
     7  C          0.05957160       0.33414000       0.69505850
     8  C          0.44042840       0.83414000       0.80494150
     9  C          0.89538830       0.71346000       0.36402160
    10  C          0.60461170       0.21346000       0.13597840
    11  C          0.10461170       0.28654000       0.63597840
    12  C          0.39538830       0.78654000       0.86402160
    13  C          0.83207830       0.91606000       0.36069160
    14  C          0.66792170       0.41606000       0.13930840
    15  C          0.16792170       0.08394000       0.63930840
    16  C          0.33207830       0.58394000       0.86069160
    17  C          0.81755820       0.06506000       0.29945170
    18  C          0.68244180       0.56506000       0.20054830
    19  C          0.18244180       0.93494000       0.70054830
    20  C          0.31755820       0.43494000       0.79945170
    21  H          0.77510000       0.20060000       0.29700000
    22  H          0.72490000       0.70060000       0.20300000
    23  H          0.22490000       0.79940000       0.70300000
    24  H          0.27510000       0.29940000       0.79700000
    25  C          0.86392820       0.02137000       0.24068160
    26  C          0.63607180       0.52137000       0.25931840
    27  C          0.13607180      -0.02137000       0.75931840
    28  C          0.36392820       0.47863000       0.74068160
    29  H          0.85360000       0.12900000       0.19910000
    30  H          0.64640000       0.62900000       0.30090000
    31  H          0.14640000       0.87100000       0.80090000
    32  H          0.35360000       0.37100000       0.69910000
    33  C          0.92384830       0.82376000       0.24351150
    34  C          0.57615170       0.32376000       0.25648850
    35  C          0.07615170       0.17624000       0.75648850
    36  C          0.42384830       0.67624000       0.74351150
    37  H          0.95490000       0.79200000       0.20350000
    38  H          0.54510000       0.29200000       0.29650000
    39  H          0.04510000       0.20800000       0.79650000
    40  H          0.45490000       0.70800000       0.70350000
    41  C          0.00394180       0.45346000       0.30625160
    42  C          0.49605820       0.95346000       0.19374840
    43  C         -0.00394180       0.54654000       0.69374840
    44  C          0.50394180       0.04654000       0.80625160
    45  H          0.03300000       0.42240000       0.26500000
    46  H          0.46700000       0.92240000       0.23500000
    47  H          0.96700000       0.57760000       0.73500000
    48  H          0.53300000       0.07760000       0.76500000
    49  C          0.08409170       0.09526000       0.36028160
    50  C          0.41590830       0.59526000       0.13971840
    51  C          0.91590830       0.90474000       0.63971840
    52  C          0.58409170       0.40474000       0.86028160
    53  C          0.10182180       0.95483000       0.42269170
    54  C          0.39817820       0.45483000       0.07730830
    55  C          0.89817820       0.04517000       0.57730830
    56  C          0.60182180       0.54517000       0.92269170
    57  H          0.07480000       0.00440000       0.46390000
    58  H          0.42520000       0.50440000       0.03610000
    59  H          0.92520000      -0.00440000       0.53610000
    60  H          0.57480000       0.49560000       0.96390000
    61  C          0.15992180       0.73993000       0.42432180
    62  C          0.34007820       0.23993000       0.07567820
    63  C          0.84007820       0.26007000       0.57567820
    64  C          0.65992180       0.76007000       0.92432180
    65  H          0.17070000       0.64250000       0.46730000
    66  H          0.32930000       0.14250000       0.03270000
    67  H          0.82930000       0.35750000       0.53270000
    68  H          0.67070000       0.85750000       0.96730000
    69  C          0.18361180       0.80403000       0.30860170
    70  C          0.31638820       0.30403000       0.19139830
    71  C          0.81638820       0.19597000       0.69139830
    72  C          0.68361180       0.69597000       0.80860170
    73  H          0.21250000       0.75430000       0.26840000
    74  H          0.28750000       0.25430000       0.23160000
    75  H          0.78750000       0.24570000       0.73160000
    76  H          0.71250000       0.74570000       0.76840000
    77  C          0.12626180       0.01567000       0.30183170
    78  C          0.37373820       0.51567000       0.19816830
    79  C          0.87373820      -0.01567000       0.69816830
    80  C          0.62626180       0.48433000       0.80183170
    81  H          0.11570000       0.10560000       0.25790000
    82  H          0.38430000       0.60560000       0.24210000
    83  H          0.88430000       0.89440000       0.74210000
    84  H          0.61570000       0.39440000       0.75790000
    85  C          0.72700820       0.14907000       0.41872170
    86  C          0.77299180       0.64907000       0.08127830
    87  C          0.27299180       0.85093000       0.58127830
    88  C          0.22700820       0.35093000       0.91872170
    89  H          0.74930000       0.33950000       0.41040000
    90  H          0.75070000       0.83950000       0.08960000
    91  H          0.25070000       0.66050000       0.58960000
    92  H          0.24930000       0.16050000       0.91040000
    93  H          0.70030000       0.14780000       0.46360000
    94  H          0.79970000       0.64780000       0.03640000
    95  H          0.29970000       0.85220000       0.53640000
    96  H          0.20030000       0.35220000       0.96360000
    97  H          0.68800000       0.10120000       0.38090000
    98  H          0.81200000       0.60120000       0.11910000
    99  H          0.31200000       0.89880000       0.61910000
   100  H          0.18800000       0.39880000       0.88090000
   101  N          0.02226140       0.30615000       0.36105130
   102  N          0.47773860       0.80615000       0.13894870
   103  N          0.97773860       0.69385000       0.63894870
   104  N          0.52226140       0.19385000       0.86105130
   105  N          0.20119140       0.66395000       0.36855140
   106  N          0.29880860       0.16395000       0.13144860
   107  N          0.79880860       0.33605000       0.63144860
   108  N          0.70119140       0.83605000       0.86855140
   109  O          0.90864860       0.57335000       0.42538110
   110  O          0.59135140       0.07335000       0.07461890
   111  O          0.09135140       0.42665000       0.57461890
   112  O          0.40864860       0.92665000       0.92538110
   113  O          0.79018870       0.94274000       0.42042110
   114  O          0.70981130       0.44274000       0.07957890
   115  O          0.20981130       0.05726000       0.57957890
   116  O          0.29018870       0.55726000       0.92042110
   117  C          0.06547160       0.63926000       0.03551150
   118  C          0.43452840       0.13926000       0.46448850
   119  C          0.93452840       0.36074000       0.96448850
   120  C          0.56547160       0.86074000       0.53551150
   121  C          0.01801180       0.44156000       0.06870160
   122  C          0.48198820       0.94156000       0.43129840
   123  C          0.98198820       0.55844000       0.93129840
   124  C          0.51801180       0.05844000       0.56870160
   125  C          0.04518170       0.69336000       0.96595840
   126  C          0.45481830       0.19336000       0.53404160
   127  C          0.95481830       0.30664000       0.03404160
   128  C          0.54518170       0.80664000       0.46595840
   129  F          0.03293100       0.37794000       0.13690800
   130  F          0.46706900       0.87794000       0.36309200
   131  F          0.96706900       0.62206000       0.86309200
   132  F          0.53293100       0.12206000       0.63690800
   133  F          0.08811100       0.88544000       0.92962100
   134  F          0.41188900       0.38544000       0.57037900
   135  F          0.91188900       0.11456000       0.07037900
   136  F          0.58811100       0.61456000       0.42962100
   137  I          0.16464200       0.84091400       0.08560200
   138  I          0.33535800       0.34091400       0.41439800
   139  I          0.83535800       0.15908600       0.91439800
   140  I          0.66464200       0.65908600       0.58560200
