data_NIPTUC
_symmetry_space_group_name_H-M    'P1'
_symmetry_Int_Tables_number       1
loop_
_symmetry_equiv_pos_site_id
_symmetry_equiv_pos_as_xyz
1 x,y,z
_cell_length_a                   9.92635
_cell_length_b                   5.69695
_cell_length_c                   21.257013
_cell_angle_alpha                90.0
_cell_angle_beta                 94.4315
_cell_angle_gamma                90.0
loop_
_atom_site_label
_atom_site_type_symbol
_atom_site_fract_x
_atom_site_fract_y
_atom_site_fract_z
     1  O          0.34661130       0.02803000       0.45374700
     2  O          0.65338870       0.52803000       0.04625300
     3  O          0.65338870       0.97197000       0.54625300
     4  O          0.34661130       0.47197000       0.95374700
     5  N          0.54165150       0.24143000       0.45175700
     6  N          0.45834850       0.74143000       0.04824300
     7  N          0.45834850       0.75857000       0.54824300
     8  N          0.54165150       0.25857000       0.95175700
     9  H          0.61900000       0.25290000       0.47170000
    10  H          0.38100000       0.75290000       0.02830000
    11  H          0.38100000       0.74710000       0.52830000
    12  H          0.61900000       0.24710000       0.97170000
    13  C          0.46363190       0.07173000       0.47298900
    14  C          0.53636810       0.57173000       0.02701100
    15  C          0.53636810       0.92827000       0.52701100
    16  C          0.46363190       0.42827000       0.97298900
    17  C          0.50939180       0.40553000       0.40260900
    18  C          0.49060820       0.90553000       0.09739100
    19  C          0.49060820       0.59447000       0.59739100
    20  C          0.50939180       0.09447000       0.90260900
    21  C          0.59702190       0.59513000       0.39833900
    22  C          0.40297810       0.09513000       0.10166100
    23  C          0.40297810       0.40487000       0.60166100
    24  C          0.59702190       0.90487000       0.89833900
    25  H          0.67350000       0.61110000       0.42780000
    26  H          0.32650000       0.11110000       0.07220000
    27  H          0.32650000       0.38890000       0.57220000
    28  H          0.67350000       0.88890000       0.92780000
    29  C          0.57212000       0.75974000       0.35108900
    30  C          0.42788000       0.25974000       0.14891100
    31  C          0.42788000       0.24026000       0.64891100
    32  C          0.57212000       0.74026000       0.85108900
    33  H          0.63220000       0.88820000       0.34790000
    34  H          0.36780000       0.38820000       0.15210000
    35  H          0.36780000       0.11180000       0.65210000
    36  H          0.63220000       0.61180000       0.84790000
    37  C          0.45932000       0.73814000       0.30808900
    38  C          0.54068000       0.23814000       0.19191100
    39  C          0.54068000       0.26186000       0.69191100
    40  C          0.45932000       0.76186000       0.80808900
    41  H          0.44140000       0.85250000       0.27600000
    42  H          0.55860000       0.35250000       0.22400000
    43  H          0.55860000       0.14750000       0.72400000
    44  H          0.44140000       0.64750000       0.77600000
    45  C          0.37362000       0.54814000       0.31274900
    46  C          0.62638000       0.04814000       0.18725100
    47  C          0.62638000       0.45186000       0.68725100
    48  C          0.37362000       0.95186000       0.81274900
    49  H          0.29690000       0.53250000       0.28340000
    50  H          0.70310000       0.03250000       0.21660000
    51  H          0.70310000       0.46750000       0.71660000
    52  H          0.29690000       0.96750000       0.78340000
    53  C          0.39783190       0.38014000       0.35943900
    54  C          0.60216810       0.88014000       0.14056100
    55  C          0.60216810       0.61986000       0.64056100
    56  C          0.39783190       0.11986000       0.85943900
    57  H          0.33900000       0.24950000       0.36190000
    58  H          0.66100000       0.74950000       0.13810000
    59  H          0.66100000       0.75050000       0.63810000
    60  H          0.33900000       0.25050000       0.86190000
    61  O          0.80064140       0.37363000       0.53710700
    62  O          0.19935860       0.87363000       0.96289300
    63  O          0.19935860       0.62637000       0.46289300
    64  O          0.80064140       0.12637000       0.03710700
    65  H          0.77010000       0.24950000       0.54950000
    66  H          0.22990000       0.74950000       0.95050000
    67  H          0.22990000       0.75050000       0.45050000
    68  H          0.77010000       0.25050000       0.04950000
    69  F          0.93134140       0.77653000       0.51927700
    70  F          0.06865860       0.27653000       0.98072300
    71  F          0.06865860       0.22347000       0.48072300
    72  F          0.93134140       0.72347000       0.01927700
    73  F          0.13983140       0.91702000       0.60058900
    74  F          0.86016860       0.41702000       0.89941100
    75  F          0.86016860       0.08298000       0.39941100
    76  F          0.13983140       0.58298000       0.10058900
    77  F          0.21171150       0.65824000       0.70535800
    78  F          0.78828850       0.15824000       0.79464200
    79  F          0.78828850       0.34176000       0.29464200
    80  F          0.21171150       0.84176000       0.20535800
    81  F          0.07992170       0.25033000       0.72613700
    82  F          0.92007830       0.75033000       0.77386300
    83  F          0.92007830       0.74967000       0.27386300
    84  F          0.07992170       0.24967000       0.22613700
    85  F          0.87598140       0.10412000       0.64413700
    86  F          0.12401860       0.60412000       0.85586300
    87  F          0.12401860       0.89588000       0.35586300
    88  F          0.87598140       0.39588000       0.14413700
    89  C          0.90039180       0.44024000       0.58027900
    90  C          0.09960820       0.94024000       0.91972100
    91  C          0.09960820       0.55976000       0.41972100
    92  C          0.90039180       0.05976000       0.08027900
    93  C          0.96832000       0.64684000       0.57044100
    94  C          0.03168000       0.14684000       0.92955900
    95  C          0.03168000       0.35316000       0.42955900
    96  C          0.96832000       0.85316000       0.07044100
    97  C          0.07352000       0.71754000       0.61188110
    98  C          0.92648000       0.21754000       0.88811890
    99  C          0.92648000       0.28246000       0.38811890
   100  C          0.07352000       0.78246000       0.11188110
   101  C          0.11012000       0.58524000       0.66457110
   102  C          0.88988000       0.08524000       0.83542890
   103  C          0.88988000       0.41476000       0.33542890
   104  C          0.11012000       0.91476000       0.16457110
   105  C          0.04292000       0.37994000       0.67500100
   106  C          0.95708000       0.87994000       0.82499900
   107  C          0.95708000       0.62006000       0.32499900
   108  C          0.04292000       0.12006000       0.17500100
   109  C          0.93832000       0.30764000       0.63286100
   110  C          0.06168000       0.80764000       0.86713900
   111  C          0.06168000       0.69236000       0.36713900
   112  C          0.93832000       0.19236000       0.13286100
