data_NIQNIL
_symmetry_space_group_name_H-M    'P1'
_symmetry_Int_Tables_number       1
loop_
_symmetry_equiv_pos_site_id
_symmetry_equiv_pos_as_xyz
1 x,y,z
_cell_length_a                   3.96892
_cell_length_b                   15.17788
_cell_length_c                   16.59958
_cell_angle_alpha                90.0
_cell_angle_beta                 95.0833
_cell_angle_gamma                90.0
loop_
_atom_site_label
_atom_site_type_symbol
_atom_site_fract_x
_atom_site_fract_y
_atom_site_fract_z
     1  O          0.09173000       0.60043700       0.31830600
     2  O          0.40827000       0.10043700       0.18169400
     3  O          0.90827000       0.39956300       0.68169400
     4  O          0.59173000       0.89956300       0.81830600
     5  O          0.31053000       0.47269800       0.28173600
     6  O          0.18947000       0.97269800       0.21826400
     7  O          0.68947000       0.52730200       0.71826400
     8  O          0.81053000       0.02730200       0.78173600
     9  C          0.25814000       0.52744100       0.33266800
    10  C          0.24186000       0.02744100       0.16733200
    11  C          0.74186000       0.47255900       0.66733200
    12  C          0.75814000       0.97255900       0.83266800
    13  C          0.38504000       0.51463900       0.41970800
    14  C          0.11496000       0.01463900       0.08029200
    15  C          0.61496000       0.48536100       0.58029200
    16  C          0.88504000       0.98536100       0.91970800
    17  C          0.32154000       0.57593100       0.47848800
    18  C          0.17846000       0.07593100       0.02151200
    19  C          0.67846000       0.42406900       0.52151200
    20  C          0.82154000       0.92406900       0.97848800
    21  C          0.56384000       0.43887100       0.44159800
    22  C          0.93616000       0.93887100       0.05840200
    23  C          0.43616000       0.56112900       0.55840200
    24  C          0.06384000       0.06112900       0.94159800
    25  H          0.02920000       0.60360000       0.27000000
    26  H          0.47080000       0.10360000       0.23000000
    27  H         -0.02920000       0.39640000       0.73000000
    28  H          0.52920000       0.89640000       0.77000000
    29  H          0.20170000       0.62700000       0.46410000
    30  H          0.29830000       0.12700000       0.03590000
    31  H          0.79830000       0.37300000       0.53590000
    32  H          0.70170000       0.87300000       0.96410000
    33  H          0.60710000       0.39770000       0.40230000
    34  H          0.89290000       0.89770000       0.09770000
    35  H          0.39290000       0.60230000       0.59770000
    36  H          0.10710000       0.10230000       0.90230000
    37  N          0.83707000       0.63231800       0.16925600
    38  N          0.66293000       0.13231800       0.33074400
    39  N          0.16293000       0.36768200       0.83074400
    40  N          0.33707000       0.86768200       0.66925600
    41  N          0.07734000       0.51007800       0.11590700
    42  N          0.42266000       0.01007800       0.38409300
    43  N          0.92266000       0.48992200       0.88409300
    44  N          0.57734000       0.98992200       0.61590700
    45  N          0.76887000       0.60097800       0.02749600
    46  N          0.73113000       0.10097800       0.47250400
    47  N          0.23113000       0.39902200       0.97250400
    48  N          0.26887000       0.89902200       0.52749600
    49  C          0.89156000       0.58227900       0.10406800
    50  C          0.60844000       0.08227900       0.39593200
    51  C          0.10844000       0.41772100       0.89593200
    52  C          0.39156000       0.91772100       0.60406800
    53  C          0.58146000       0.67319900       0.01642800
    54  C          0.91854000       0.17319900       0.48357200
    55  C          0.41854000       0.32680100       0.98357200
    56  C          0.08146000       0.82680100       0.51642800
    57  C          0.51506000       0.72782100       0.07997800
    58  C         -0.01506000       0.22782100       0.42002200
    59  C          0.48494000       0.27217900       0.92002200
    60  C          0.01506000       0.77217900       0.57997800
    61  C          0.65156000       0.70539900       0.15686800
    62  C          0.84844000       0.20539900       0.34313200
    63  C          0.34844000       0.29460100       0.84313200
    64  C          0.15156000       0.79460100       0.65686800
    65  C          0.44346000       0.69249110       0.93100100
    66  C          0.05654000       0.19249110       0.56899900
    67  C          0.55654000       0.30750890       0.06899900
    68  C          0.94346000       0.80750890       0.43100100
    69  C          0.60096000       0.76140110       0.22893900
    70  C          0.89904000       0.26140110       0.27106100
    71  C          0.39904000       0.23859890       0.77106100
    72  C          0.10096000       0.73859890       0.72893900
    73  H          0.11570000       0.47710000       0.07560000
    74  H          0.38430000       0.97710000       0.42440000
    75  H          0.88430000       0.52290000       0.92440000
    76  H          0.61570000       0.02290000       0.57560000
    77  H          0.15940000       0.49620000       0.16390000
    78  H          0.34060000      -0.00380000       0.33610000
    79  H          0.84060000       0.50380000       0.83610000
    80  H          0.65940000       0.00380000       0.66390000
    81  H          0.38280000       0.77810000       0.07120000
    82  H          0.11720000       0.27810000       0.42880000
    83  H          0.61720000       0.22190000       0.92880000
    84  H          0.88280000       0.72190000       0.57120000
    85  H          0.62630000       0.70710000       0.89920000
    86  H          0.87370000       0.20710000       0.60080000
    87  H          0.37370000       0.29290000       0.10080000
    88  H          0.12630000       0.79290000       0.39920000
    89  H          0.28900000       0.74120000       0.93080000
    90  H          0.21100000       0.24120000       0.56920000
    91  H          0.71100000       0.25880000       0.06920000
    92  H          0.78900000       0.75880000       0.43080000
    93  H          0.32710000       0.64150000       0.90850000
    94  H          0.17290000       0.14150000       0.59150000
    95  H          0.67290000       0.35850000       0.09150000
    96  H          0.82710000       0.85850000       0.40850000
    97  H          0.53720000       0.72480000       0.27220000
    98  H         -0.03720000       0.22480000       0.22780000
    99  H          0.46280000       0.27520000       0.72780000
   100  H          0.03720000       0.77520000       0.77220000
   101  H          0.42560000       0.80370000       0.21500000
   102  H          0.07440000       0.30370000       0.28500000
   103  H          0.57440000       0.19630000       0.78500000
   104  H          0.92560000       0.69630000       0.71500000
   105  H          0.80780000       0.79160000       0.24580000
   106  H          0.69220000       0.29160000       0.25420000
   107  H          0.19220000       0.20840000       0.75420000
   108  H          0.30780000       0.70840000       0.74580000
