data_NIQROX01
_symmetry_space_group_name_H-M    'P1'
_symmetry_Int_Tables_number       1
loop_
_symmetry_equiv_pos_site_id
_symmetry_equiv_pos_as_xyz
1 x,y,z
_cell_length_a                   17.68816
_cell_length_b                   7.54082
_cell_length_c                   17.26216
_cell_angle_alpha                90.0
_cell_angle_beta                 106.0214
_cell_angle_gamma                90.0
loop_
_atom_site_label
_atom_site_type_symbol
_atom_site_fract_x
_atom_site_fract_y
_atom_site_fract_z
     1  N          0.16551700       0.19094150       0.05933700
     2  N          0.66551700       0.69094150       0.05933700
     3  N          0.83448300       0.19094150       0.44066300
     4  N          0.33448300       0.69094150       0.44066300
     5  N          0.83448300       0.80905850       0.94066300
     6  N          0.33448300       0.30905850       0.94066300
     7  N          0.16551700       0.80905850       0.55933700
     8  N          0.66551700       0.30905850       0.55933700
     9  O          0.24030600       0.18375150       0.06174600
    10  O          0.74030600       0.68375150       0.06174600
    11  O          0.75969400       0.18375150       0.43825400
    12  O          0.25969400       0.68375150       0.43825400
    13  O          0.75969400       0.81624850       0.93825400
    14  O          0.25969400       0.31624850       0.93825400
    15  O          0.24030600       0.81624850       0.56174600
    16  O          0.74030600       0.31624850       0.56174600
    17  O          0.14590600       0.12125140       0.11503600
    18  O          0.64590600       0.62125140       0.11503600
    19  O          0.85409400       0.12125140       0.38496400
    20  O          0.35409400       0.62125140       0.38496400
    21  O          0.85409400       0.87874860       0.88496400
    22  O          0.35409400       0.37874860       0.88496400
    23  O          0.14590600       0.87874860       0.61503600
    24  O          0.64590600       0.37874860       0.61503600
    25  O          0.12003600       0.26863130       0.00260600
    26  O          0.62003600       0.76863130       0.00260600
    27  O          0.87996400       0.26863130       0.49739400
    28  O          0.37996400       0.76863130       0.49739400
    29  O          0.87996400       0.73136870      -0.00260600
    30  O          0.37996400       0.23136870      -0.00260600
    31  O          0.12003600       0.73136870       0.50260600
    32  O          0.62003600       0.23136870       0.50260600
    33  P          0.50000000       0.44867600       0.25000000
    34  P          0.00000000       0.94867600       0.25000000
    35  P          0.50000000       0.55132400       0.75000000
    36  P          0.00000000       0.05132400       0.75000000
    37  C          0.43612700       0.30403150       0.28504700
    38  C          0.93612700       0.80403150       0.28504700
    39  C          0.56387300       0.30403150       0.21495300
    40  C          0.06387300       0.80403150       0.21495300
    41  C          0.56387300       0.69596850       0.71495300
    42  C          0.06387300       0.19596850       0.71495300
    43  C          0.43612700       0.69596850       0.78504700
    44  C          0.93612700       0.19596850       0.78504700
    45  C          0.47036700       0.17243160       0.34108700
    46  C          0.97036700       0.67243160       0.34108700
    47  C          0.52963300       0.17243160       0.15891300
    48  C          0.02963300       0.67243160       0.15891300
    49  C          0.52963300       0.82756840       0.65891300
    50  C          0.02963300       0.32756840       0.65891300
    51  C          0.47036700       0.82756840       0.84108700
    52  C          0.97036700       0.32756840       0.84108700
    53  H          0.52593600       0.16495700       0.36148300
    54  H          0.02593600       0.66495700       0.36148300
    55  H          0.47406400       0.16495700       0.13851700
    56  H          0.97406400       0.66495700       0.13851700
    57  H          0.47406400       0.83504300       0.63851700
    58  H          0.97406400       0.33504300       0.63851700
    59  H          0.52593600       0.83504300       0.86148300
    60  H          0.02593600       0.33504300       0.86148300
    61  C          0.42247700       0.05308170       0.36656700
    62  C          0.92247700       0.55308170       0.36656700
    63  C          0.57752300       0.05308170       0.13343300
    64  C          0.07752300       0.55308170       0.13343300
    65  C          0.57752300       0.94691830       0.63343300
    66  C          0.07752300       0.44691830       0.63343300
    67  C          0.42247700       0.94691830       0.86656700
    68  C          0.92247700       0.44691830       0.86656700
    69  H          0.44516400       0.96445800       0.40507300
    70  H          0.94516400       0.46445800       0.40507300
    71  H          0.55483600       0.96445800       0.09492700
    72  H          0.05483600       0.46445800       0.09492700
    73  H          0.55483600       0.03554200       0.59492700
    74  H          0.05483600       0.53554200       0.59492700
    75  H          0.44516400       0.03554200       0.90507300
    76  H          0.94516400       0.53554200       0.90507300
    77  C          0.34112700       0.06347170       0.33557700
    78  C          0.84112700       0.56347170       0.33557700
    79  C          0.65887300       0.06347170       0.16442300
    80  C          0.15887300       0.56347170       0.16442300
    81  C          0.65887300       0.93652830       0.66442300
    82  C          0.15887300       0.43652830       0.66442300
    83  C          0.34112700       0.93652830       0.83557700
    84  C          0.84112700       0.43652830       0.83557700
    85  H          0.30841500      -0.01760000       0.35346400
    86  H          0.80841500       0.48240000       0.35346400
    87  H          0.69158500      -0.01760000       0.14653600
    88  H          0.19158500       0.48240000       0.14653600
    89  H          0.69158500       0.01760000       0.64653600
    90  H          0.19158500       0.51760000       0.64653600
    91  H          0.30841500       0.01760000       0.85346400
    92  H          0.80841500       0.51760000       0.85346400
    93  C          0.30757700       0.19102180       0.27889800
    94  C          0.80757700       0.69102180       0.27889800
    95  C          0.69242300       0.19102180       0.22110200
    96  C          0.19242300       0.69102180       0.22110200
    97  C          0.69242300       0.80897820       0.72110200
    98  C          0.19242300       0.30897820       0.72110200
    99  C          0.30757700       0.80897820       0.77889800
   100  C          0.80757700       0.30897820       0.77889800
   101  H          0.25205200       0.19557900       0.25725600
   102  H          0.75205200       0.69557900       0.25725600
   103  H          0.74794800       0.19557900       0.24274400
   104  H          0.24794800       0.69557900       0.24274400
   105  H          0.74794800       0.80442100       0.74274400
   106  H          0.24794800       0.30442100       0.74274400
   107  H          0.25205200       0.80442100       0.75725600
   108  H          0.75205200       0.30442100       0.75725600
   109  C          0.35479700       0.31246170       0.25352700
   110  C          0.85479700       0.81246170       0.25352700
   111  C          0.64520300       0.31246170       0.24647300
   112  C          0.14520300       0.81246170       0.24647300
   113  C          0.64520300       0.68753830       0.74647300
   114  C          0.14520300       0.18753830       0.74647300
   115  C          0.35479700       0.68753830       0.75352700
   116  C          0.85479700       0.18753830       0.75352700
   117  H          0.33172700       0.40065500       0.21492900
   118  H          0.83172700       0.90065500       0.21492900
   119  H          0.66827300       0.40065500       0.28507100
   120  H          0.16827300       0.90065500       0.28507100
   121  H          0.66827300       0.59934500       0.78507100
   122  H          0.16827300       0.09934500       0.78507100
   123  H          0.33172700       0.59934500       0.71492900
   124  H          0.83172700       0.09934500       0.71492900
   125  C          0.55544700       0.59037150       0.32816700
   126  C          0.05544700       0.09037150       0.32816700
   127  C          0.44455300       0.59037150       0.17183300
   128  C          0.94455300       0.09037150       0.17183300
   129  C          0.44455300       0.40962850       0.67183300
   130  C          0.94455300       0.90962850       0.67183300
   131  C          0.55544700       0.40962850       0.82816700
   132  C          0.05544700       0.90962850       0.82816700
   133  C          0.60096700       0.72349170       0.30643800
   134  C          0.10096700       0.22349170       0.30643800
   135  C          0.39903300       0.72349170       0.19356200
   136  C          0.89903300       0.22349170       0.19356200
   137  C          0.39903300       0.27650830       0.69356200
   138  C          0.89903300       0.77650830       0.69356200
   139  C          0.60096700       0.27650830       0.80643800
   140  C          0.10096700       0.77650830       0.80643800
   141  H          0.60115900       0.73669900       0.25175500
   142  H          0.10115900       0.23669900       0.25175500
   143  H          0.39884100       0.73669900       0.24824500
   144  H          0.89884100       0.23669900       0.24824500
   145  H          0.39884100       0.26330100       0.74824500
   146  H          0.89884100       0.76330100       0.74824500
   147  H          0.60115900       0.26330100       0.75175500
   148  H          0.10115900       0.76330100       0.75175500
   149  C          0.64566800       0.83578180       0.36482800
   150  C          0.14566800       0.33578180       0.36482800
   151  C          0.35433200       0.83578180       0.13517200
   152  C          0.85433200       0.33578180       0.13517200
   153  C          0.35433200       0.16421820       0.63517200
   154  C          0.85433200       0.66421820       0.63517200
   155  C          0.64566800       0.16421820       0.86482800
   156  C          0.14566800       0.66421820       0.86482800
   157  H          0.67693200       0.92551800       0.35035000
   158  H          0.17693200       0.42551800       0.35035000
   159  H          0.32306800       0.92551800       0.14965000
   160  H          0.82306800       0.42551800       0.14965000
   161  H          0.32306800       0.07448200       0.64965000
   162  H          0.82306800       0.57448200       0.64965000
   163  H          0.67693200       0.07448200       0.85035000
   164  H          0.17693200       0.57448200       0.85035000
   165  C          0.64468800       0.81686180       0.44474800
   166  C          0.14468800       0.31686180       0.44474800
   167  C          0.35531200       0.81686180       0.05525200
   168  C          0.85531200       0.31686180       0.05525200
   169  C          0.35531200       0.18313820       0.55525200
   170  C          0.85531200       0.68313820       0.55525200
   171  C          0.64468800       0.18313820       0.94474800
   172  C          0.14468800       0.68313820       0.94474800
   173  H          0.67559500       0.89346700       0.48482100
   174  H          0.17559500       0.39346700       0.48482100
   175  H          0.32440500       0.89346700       0.01517900
   176  H          0.82440500       0.39346700       0.01517900
   177  H          0.32440500       0.10653300       0.51517900
   178  H          0.82440500       0.60653300       0.51517900
   179  H          0.67559500       0.10653300       0.98482100
   180  H          0.17559500       0.60653300       0.98482100
   181  C          0.59890800       0.68702180       0.46613800
   182  C          0.09890800       0.18702180       0.46613800
   183  C          0.40109200       0.68702180       0.03386200
   184  C          0.90109200       0.18702180       0.03386200
   185  C          0.40109200       0.31297820       0.53386200
   186  C          0.90109200       0.81297820       0.53386200
   187  C          0.59890800       0.31297820       0.96613800
   188  C          0.09890800       0.81297820       0.96613800
   189  H          0.59828300       0.67558100       0.52076300
   190  H          0.09828300       0.17558100       0.52076300
   191  H          0.40171700       0.67558100       0.97923700
   192  H          0.90171700       0.17558100       0.97923700
   193  H          0.40171700       0.32441900       0.47923700
   194  H          0.90171700       0.82441900       0.47923700
   195  H          0.59828300       0.32441900       0.02076300
   196  H          0.09828300       0.82441900       0.02076300
   197  C          0.55384700       0.57332170       0.40821700
   198  C          0.05384700       0.07332170       0.40821700
   199  C          0.44615300       0.57332170       0.09178300
   200  C          0.94615300       0.07332170       0.09178300
   201  C          0.44615300       0.42667830       0.59178300
   202  C          0.94615300       0.92667830       0.59178300
   203  C          0.55384700       0.42667830       0.90821700
   204  C          0.05384700       0.92667830       0.90821700
   205  H          0.52221000       0.48473500       0.42295000
   206  H          0.02221000      -0.01526500       0.42295000
   207  H          0.47779000       0.48473500       0.07705000
   208  H          0.97779000      -0.01526500       0.07705000
   209  H          0.47779000       0.51526500       0.57705000
   210  H          0.97779000       0.01526500       0.57705000
   211  H          0.52221000       0.51526500       0.92295000
   212  H          0.02221000       0.01526500       0.92295000
