data_NISMAD
_symmetry_space_group_name_H-M    'P1'
_symmetry_Int_Tables_number       1
loop_
_symmetry_equiv_pos_site_id
_symmetry_equiv_pos_as_xyz
1 x,y,z
_cell_length_a                   8.21215
_cell_length_b                   5.34013
_cell_length_c                   14.60149
_cell_angle_alpha                90.0
_cell_angle_beta                 99.9627
_cell_angle_gamma                90.0
loop_
_atom_site_label
_atom_site_type_symbol
_atom_site_fract_x
_atom_site_fract_y
_atom_site_fract_z
     1  O          0.05492000       0.01423000       0.66831100
     2  O          0.44508000       0.51423000       0.33168900
     3  O          0.94508000      -0.01423000       0.33168900
     4  O          0.55492000       0.48577000       0.66831100
     5  C          0.04392000       0.01464000       0.76110880
     6  C          0.45608000       0.51464000       0.23889120
     7  C          0.95608000      -0.01464000       0.23889120
     8  C          0.54392000       0.48536000       0.76110880
     9  C          0.95487000       0.82546000       0.79459870
    10  C          0.54513000       0.32546000       0.20540130
    11  C          0.04513000       0.17454000       0.20540130
    12  C          0.45487000       0.67454000       0.79459870
    13  C          0.93837000       0.82036000       0.88681870
    14  C          0.56163000       0.32036000       0.11318130
    15  C          0.06163000       0.17964000       0.11318130
    16  C          0.43837000       0.67964000       0.88681870
    17  C          0.00982000       0.00134000       0.95026890
    18  C          0.49018000       0.50134000       0.04973110
    19  C         -0.00982000      -0.00134000       0.04973110
    20  C          0.50982000       0.49866000       0.95026890
    21  C          0.10143000       0.18684000       0.91478870
    22  C          0.39857000       0.68684000       0.08521130
    23  C          0.89857000       0.81316000       0.08521130
    24  C          0.60143000       0.31316000       0.91478870
    25  C          0.11812000       0.19374000       0.82229880
    26  C          0.38188000       0.69374000       0.17770120
    27  C          0.88188000       0.80626000       0.17770120
    28  C          0.61812000       0.30626000       0.82229880
    29  H          0.09050000       0.14970000       0.65420000
    30  H          0.40950000       0.64970000       0.34580000
    31  H          0.90950000       0.85030000       0.34580000
    32  H          0.59050000       0.35030000       0.65420000
    33  H          0.90600000       0.70100000       0.75450000
    34  H          0.59400000       0.20100000       0.24550000
    35  H          0.09400000       0.29900000       0.24550000
    36  H          0.40600000       0.79900000       0.75450000
    37  H          0.87750000       0.69180000       0.90755000
    38  H          0.62250000       0.19180000       0.09245000
    39  H          0.12250000       0.30820000       0.09245000
    40  H          0.37750000       0.80820000       0.90755000
    41  H          0.15290000       0.30970000       0.95476000
    42  H          0.34710000       0.80970000       0.04524000
    43  H          0.84710000       0.69030000       0.04524000
    44  H          0.65290000       0.19030000       0.95476000
    45  H          0.17990000       0.32040000       0.80118000
    46  H          0.32010000       0.82040000       0.19882000
    47  H          0.82010000       0.67960000       0.19882000
    48  H          0.67990000       0.17960000       0.80118000
    49  N          0.15912000       0.46103000       0.60721900
    50  N          0.34088000       0.96103000       0.39278100
    51  N          0.84088000       0.53897000       0.39278100
    52  N          0.65912000       0.03897000       0.60721900
    53  C          0.08953000       0.50356000       0.50883850
    54  C          0.41047000       0.00356000       0.49116150
    55  C          0.91047000       0.49644000       0.49116150
    56  C          0.58953000      -0.00356000       0.50883850
    57  H          0.26880000       0.45330000       0.61420000
    58  H          0.23120000       0.95330000       0.38580000
    59  H          0.73120000       0.54670000       0.38580000
    60  H          0.76880000       0.04670000       0.61420000
    61  H          0.13020000       0.58640000       0.64120000
    62  H          0.36980000       0.08640000       0.35880000
    63  H          0.86980000       0.41360000       0.35880000
    64  H          0.63020000       0.91360000       0.64120000
    65  H          0.12610000       0.66520000       0.49002000
    66  H          0.37390000       0.16520000       0.50998000
    67  H          0.87390000       0.33480000       0.50998000
    68  H          0.62610000       0.83480000       0.49002000
    69  H          0.13110000       0.37640000       0.47142000
    70  H          0.36890000       0.87640000       0.52858000
    71  H          0.86890000       0.62360000       0.52858000
    72  H          0.63110000       0.12360000       0.47142000
