data_NISWEU
_symmetry_space_group_name_H-M    'P1'
_symmetry_Int_Tables_number       1
loop_
_symmetry_equiv_pos_site_id
_symmetry_equiv_pos_as_xyz
1 x,y,z
_cell_length_a                   8.20913
_cell_length_b                   9.69794
_cell_length_c                   13.76435
_cell_angle_alpha                72.98401
_cell_angle_beta                 84.05701
_cell_angle_gamma                65.76201
loop_
_atom_site_label
_atom_site_type_symbol
_atom_site_fract_x
_atom_site_fract_y
_atom_site_fract_z
     1  S          0.29377300       0.28016300       0.09831200
     2  S          0.70622700       0.71983700       0.90168800
     3  O          0.28633120       0.43870100       0.07951700
     4  O          0.71366880       0.56129900       0.92048300
     5  O          0.47477110       0.16535100       0.09086700
     6  O          0.52522890       0.83464900       0.90913300
     7  O          0.20864130       0.23136120       0.19211700
     8  O          0.79135870       0.76863880       0.80788300
     9  N          0.10713120       0.24072100       0.80400700
    10  N          0.89286880       0.75927900       0.19599300
    11  C          0.25525150       0.18001130       0.75124900
    12  C          0.74474850       0.81998870       0.24875100
    13  C          0.29021150       0.27130130       0.66154900
    14  C          0.70978850       0.72869870       0.33845100
    15  C          0.17439140       0.42899120       0.62259800
    16  C          0.82560860       0.57100880       0.37740200
    17  C          0.02346150       0.48737120       0.68006800
    18  C          0.97653850       0.51262880       0.31993200
    19  C         -0.00768150       0.39205130       0.76925800
    20  C          0.00768150       0.60794870       0.23074200
    21  C          0.20874150       0.52834120       0.52562800
    22  C          0.79125850       0.47165880       0.47437200
    23  C          0.10995170       0.69462130       0.49734900
    24  C          0.89004830       0.30537870       0.50265100
    25  C          0.13565170       0.78703130       0.40599900
    26  C          0.86434830       0.21296870       0.59400100
    27  C          0.26257150       0.72002130       0.33673800
    28  C          0.73742850       0.27997870       0.66326200
    29  C          0.29003160       0.81219140       0.24053900
    30  C          0.70996840       0.18780860       0.75946100
    31  C          0.40805170       0.74219140       0.17394900
    32  C          0.59194830       0.25780860       0.82605100
    33  C          0.50758170       0.57765140       0.20109900
    34  C          0.49241830       0.42234860       0.79890100
    35  C          0.48812170       0.48616140       0.29503900
    36  C          0.51187830       0.51383860       0.70496100
    37  C          0.36389150       0.55495120       0.36426800
    38  C          0.63610850       0.44504880       0.63573200
    39  C          0.33415150       0.46217120       0.45952800
    40  C          0.66584850       0.53782880       0.54047200
    41  C          0.07637150       0.14248130       0.90343800
    42  C          0.92362850       0.85751870       0.09656200
    43  C          0.19327150       0.13102120       0.98738800
    44  C          0.80672850       0.86897880       0.01261200
    45  C          0.16702150       0.29146120      -0.00351200
    46  C          0.83297850       0.70853880       0.00351200
    47  H          0.32820000       0.07891900       0.78051300
    48  H          0.67180000       0.92108100       0.21948700
    49  H          0.40620000       0.22251900       0.63121300
    50  H          0.59380000       0.77748100       0.36878700
    51  H          0.93480000       0.59191900       0.65781300
    52  H          0.06520000       0.40808100       0.34218700
    53  H          0.89080000       0.43141900       0.80851300
    54  H          0.10920000       0.56858100       0.19148700
    55  H          0.02320000       0.74271800       0.54441300
    56  H          0.97680000       0.25728200       0.45558700
    57  H          0.06720000       0.90220000       0.38611300
    58  H          0.93280000       0.09780000       0.61388700
    59  H          0.22820000       0.92001900       0.22661200
    60  H          0.77180000       0.07998100       0.77338800
    61  H          0.42130000       0.80320000       0.10741400
    62  H          0.57870000       0.19680000       0.89258600
    63  H          0.59120000       0.52631900       0.15531300
    64  H          0.40880000       0.47368100       0.84468700
    65  H          0.55820000       0.37620000       0.31361300
    66  H          0.44180000       0.62380000       0.68638700
    67  H          0.39921800       0.35251600       0.47251000
    68  H          0.60078200       0.64748400       0.52749000
    69  H          0.95328100       0.19151600       0.91681100
    70  H          0.04671900       0.80848400       0.08318900
    71  H          0.10020000       0.04471700       0.89491200
    72  H          0.89980000       0.95528300       0.10508800
    73  H          0.31720000       0.07211600       0.97541200
    74  H          0.68280000       0.92788400       0.02458800
    75  H          0.15820000       0.07391800       0.04931200
    76  H          0.84180000       0.92608200       0.95068800
    77  H          0.20520000       0.35061700       0.93791200
    78  H          0.79480000       0.64938300       0.06208800
    79  H          0.04520000       0.35141800       0.00701200
    80  H          0.95480000       0.64858200      -0.00701200
    81  C          0.64011180       0.04332150       0.45895110
    82  C          0.35988820       0.95667850       0.54104890
    83  C          0.49515190       0.08067140       0.39787100
    84  C          0.50484810       0.91932860       0.60212900
    85  C          0.35575180       0.03721140       0.43861110
    86  C          0.64424820       0.96278860       0.56138890
    87  H          0.73320000       0.07120000       0.42991300
    88  H          0.26680000       0.92880000       0.57008700
    89  H          0.49620000       0.13720000       0.32421400
    90  H          0.50380000       0.86280000       0.67578600
    91  H          0.25920000       0.06320000       0.39651400
    92  H          0.74080000       0.93680000       0.60348600
    93  O          0.25360130       0.72686120       0.93991800
    94  O          0.74639870       0.27313880       0.06008200
    95  H          0.34730000       0.74420000       0.93311400
    96  H          0.65270000       0.25580000       0.06688600
    97  H          0.28630000       0.63820000       0.97591600
    98  H          0.71370000       0.36180000       0.02408400
    99  O          0.89582830       0.17789150       0.25865100
   100  O          0.10417170       0.82210850       0.74134900
   101  H          0.84470000       0.21730000       0.19520000
   102  H          0.15530000       0.78270000       0.80480000
   103  H          0.98570000       0.19720000       0.24361600
   104  H          0.01430000       0.80280000       0.75638400
