data_NITGUS
_symmetry_space_group_name_H-M    'P1'
_symmetry_Int_Tables_number       1
loop_
_symmetry_equiv_pos_site_id
_symmetry_equiv_pos_as_xyz
1 x,y,z
_cell_length_a                   18.2472
_cell_length_b                   5.36964
_cell_length_c                   19.2543
_cell_angle_alpha                90.0
_cell_angle_beta                 90.6795
_cell_angle_gamma                90.0
loop_
_atom_site_label
_atom_site_type_symbol
_atom_site_fract_x
_atom_site_fract_y
_atom_site_fract_z
     1  N          0.01974800       0.44357000       0.90784300
     2  N          0.51974800       0.94357000       0.40784300
     3  N          0.48025200       0.44357000       0.09215700
     4  N          0.98025200       0.94357000       0.59215700
     5  N          0.98025200       0.55643000       0.09215700
     6  N          0.48025200       0.05643000       0.59215700
     7  N          0.51974800       0.55643000       0.90784300
     8  N          0.01974800       0.05643000       0.40784300
     9  H          0.00018800       0.37487000       0.94663300
    10  H          0.50018800       0.87487000       0.44663300
    11  H          0.49981200       0.37487000       0.05336700
    12  H         -0.00018800       0.87487000       0.55336700
    13  H         -0.00018800       0.62513000       0.05336700
    14  H          0.49981200       0.12513000       0.55336700
    15  H          0.50018800       0.62513000       0.94663300
    16  H          0.00018800       0.12513000       0.44663300
    17  O          0.06224800       0.73777000       0.98246400
    18  O          0.56224800       0.23777000       0.48246400
    19  O          0.43775200       0.73777000       0.01753600
    20  O          0.93775200       0.23777000       0.51753600
    21  O          0.93775200       0.26223000       0.01753600
    22  O          0.43775200       0.76223000       0.51753600
    23  O          0.56224800       0.26223000       0.98246400
    24  O          0.06224800       0.76223000       0.48246400
    25  C          0.06223100       0.64616000       0.92177100
    26  C          0.56223100       0.14616000       0.42177100
    27  C          0.43776900       0.64616000       0.07822900
    28  C          0.93776900       0.14616000       0.57822900
    29  C          0.93776900       0.35384000       0.07822900
    30  C          0.43776900       0.85384000       0.57822900
    31  C          0.56223100       0.35384000       0.92177100
    32  C          0.06223100       0.85384000       0.42177100
    33  C          0.10353100       0.73976000       0.86565100
    34  C          0.60353100       0.23976000       0.36565100
    35  C          0.39646900       0.73976000       0.13434900
    36  C          0.89646900       0.23976000       0.63434900
    37  C          0.89646900       0.26024000       0.13434900
    38  C          0.39646900       0.76024000       0.63434900
    39  C          0.60353100       0.26024000       0.86565100
    40  C          0.10353100       0.76024000       0.36565100
    41  H          0.13927100       0.87616000       0.87357100
    42  H          0.63927100       0.37616000       0.37357100
    43  H          0.36072900       0.87616000       0.12642900
    44  H          0.86072900       0.37616000       0.62642900
    45  H          0.86072900       0.12384000       0.12642900
    46  H          0.36072900       0.62384000       0.62642900
    47  H          0.63927100       0.12384000       0.87357100
    48  H          0.13927100       0.62384000       0.37357100
    49  C          0.09925100       0.62946000       0.80231900
    50  C          0.59925100       0.12946000       0.30231900
    51  C          0.40074900       0.62946000       0.19768100
    52  C          0.90074900       0.12946000       0.69768100
    53  C          0.90074900       0.37054000       0.19768100
    54  C          0.40074900       0.87054000       0.69768100
    55  C          0.59925100       0.37054000       0.80231900
    56  C          0.09925100       0.87054000       0.30231900
    57  H          0.12153100       0.69836000       0.76197900
    58  H          0.62153100       0.19836000       0.26197900
    59  H          0.37846900       0.69836000       0.23802100
    60  H          0.87846900       0.19836000       0.73802100
    61  H          0.87846900       0.30164000       0.23802100
    62  H          0.37846900       0.80164000       0.73802100
    63  H          0.62153100       0.30164000       0.76197900
    64  H          0.12153100       0.80164000       0.26197900
    65  C          0.05390110       0.42176000       0.79058100
    66  C          0.55390110       0.92176000       0.29058100
    67  C          0.44609890       0.42176000       0.20941900
    68  C          0.94609890       0.92176000       0.70941900
    69  C          0.94609890       0.57824000       0.20941900
    70  C          0.44609890       0.07824000       0.70941900
    71  C          0.55390110       0.57824000       0.79058100
    72  C          0.05390110       0.07824000       0.29058100
    73  H          0.05984110       0.33226000       0.74688100
    74  H          0.55984110       0.83226000       0.24688100
    75  H          0.44015890       0.33226000       0.25311900
    76  H          0.94015890       0.83226000       0.75311900
    77  H          0.94015890       0.66774000       0.25311900
    78  H          0.44015890       0.16774000       0.75311900
    79  H          0.55984110       0.66774000       0.74688100
    80  H          0.05984110       0.16774000       0.24688100
    81  C          0.01524100       0.33206000       0.84458100
    82  C          0.51524100       0.83206000       0.34458100
    83  C          0.48475900       0.33206000       0.15541900
    84  C          0.98475900       0.83206000       0.65541900
    85  C          0.98475900       0.66794000       0.15541900
    86  C          0.48475900       0.16794000       0.65541900
    87  C          0.51524100       0.66794000       0.84458100
    88  C          0.01524100       0.16794000       0.34458100
    89  H          0.97977900       0.17706000       0.84397100
    90  H          0.47977900       0.67706000       0.34397100
    91  H          0.52022100       0.17706000       0.15602900
    92  H          0.02022100       0.67706000       0.65602900
    93  H          0.02022100       0.82294000       0.15602900
    94  H          0.52022100       0.32294000       0.65602900
    95  H          0.47977900       0.82294000       0.84397100
    96  H          0.97977900       0.32294000       0.34397100
    97  O          0.14416800       0.12533000       0.00987700
    98  O          0.64416800       0.62533000       0.50987700
    99  O          0.35583200       0.12533000       0.99012300
   100  O          0.85583200       0.62533000       0.49012300
   101  O          0.85583200       0.87467000       0.99012300
   102  O          0.35583200       0.37467000       0.49012300
   103  O          0.64416800       0.87467000       0.00987700
   104  O          0.14416800       0.37467000       0.50987700
   105  H          0.12077800       0.96687000       0.00058700
   106  H          0.62077800       0.46687000       0.50058700
   107  H          0.37922200       0.96687000      -0.00058700
   108  H          0.87922200       0.46687000       0.49941300
   109  H          0.87922200       0.03313000      -0.00058700
   110  H          0.37922200       0.53313000       0.49941300
   111  H          0.62077800       0.03313000       0.00058700
   112  H          0.12077800       0.53313000       0.50058700
   113  O          0.10741800       0.06853000       0.11833700
   114  O          0.60741800       0.56853000       0.61833700
   115  O          0.39258200       0.06853000       0.88166300
   116  O          0.89258200       0.56853000       0.38166300
   117  O          0.89258200       0.93147000       0.88166300
   118  O          0.39258200       0.43147000       0.38166300
   119  O          0.60741800       0.93147000       0.11833700
   120  O          0.10741800       0.43147000       0.61833700
   121  C          0.14484100       0.17864000       0.07687900
   122  C          0.64484100       0.67864000       0.57687900
   123  C          0.35515900       0.17864000       0.92312100
   124  C          0.85515900       0.67864000       0.42312100
   125  C          0.85515900       0.82136000       0.92312100
   126  C          0.35515900       0.32136000       0.42312100
   127  C          0.64484100       0.82136000       0.07687900
   128  C          0.14484100       0.32136000       0.57687900
   129  C          0.19549110       0.38874000       0.09529100
   130  C          0.69549110       0.88874000       0.59529100
   131  C          0.30450890       0.38874000       0.90470900
   132  C          0.80450890       0.88874000       0.40470900
   133  C          0.80450890       0.61126000       0.90470900
   134  C          0.30450890       0.11126000       0.40470900
   135  C          0.69549110       0.61126000       0.09529100
   136  C          0.19549110       0.11126000       0.59529100
   137  H          0.23903110       0.36184000       0.07116100
   138  H          0.73903110       0.86184000       0.57116100
   139  H          0.26096890       0.36184000       0.92883900
   140  H          0.76096890       0.86184000       0.42883900
   141  H          0.76096890       0.63816000       0.92883900
   142  H          0.26096890       0.13816000       0.42883900
   143  H          0.73903110       0.63816000       0.07116100
   144  H          0.23903110       0.13816000       0.57116100
   145  H          0.17933110       0.53744000       0.06856100
   146  H          0.67933110       0.03744000       0.56856100
   147  H          0.32066890       0.53744000       0.93143900
   148  H          0.82066890       0.03744000       0.43143900
   149  H          0.82066890       0.46256000       0.93143900
   150  H          0.32066890       0.96256000       0.43143900
   151  H          0.67933110       0.46256000       0.06856100
   152  H          0.17933110       0.96256000       0.56856100
   153  C          0.20401110       0.43084000       0.17294100
   154  C          0.70401110       0.93084000       0.67294100
   155  C          0.29598890       0.43084000       0.82705900
   156  C          0.79598890       0.93084000       0.32705900
   157  C          0.79598890       0.56916000       0.82705900
   158  C          0.29598890       0.06916000       0.32705900
   159  C          0.70401110       0.56916000       0.17294100
   160  C          0.20401110       0.06916000       0.67294100
   161  H          0.16061110       0.44964000       0.19527100
   162  H          0.66061110       0.94964000       0.69527100
   163  H          0.33938890       0.44964000       0.80472900
   164  H          0.83938890       0.94964000       0.30472900
   165  H          0.83938890       0.55036000       0.80472900
   166  H          0.33938890       0.05036000       0.30472900
   167  H          0.66061110       0.55036000       0.19527100
   168  H          0.16061110       0.05036000       0.69527100
   169  H          0.22021110       0.60424000       0.17997100
   170  H          0.72021110       0.10424000       0.67997100
   171  H          0.27978890       0.60424000       0.82002900
   172  H          0.77978890       0.10424000       0.32002900
   173  H          0.77978890       0.39576000       0.82002900
   174  H          0.27978890       0.89576000       0.32002900
   175  H          0.72021110       0.39576000       0.17997100
   176  H          0.22021110       0.89576000       0.67997100
   177  C          0.24694100       0.22844000       0.21076900
   178  C          0.74694100       0.72844000       0.71076900
   179  C          0.25305900       0.22844000       0.78923100
   180  C          0.75305900       0.72844000       0.28923100
   181  C          0.75305900       0.77156000       0.78923100
   182  C          0.25305900       0.27156000       0.28923100
   183  C          0.74694100       0.77156000       0.21076900
   184  C          0.24694100       0.27156000       0.71076900
   185  H          0.21955100       0.05874000       0.20150900
   186  H          0.71955100       0.55874000       0.70150900
   187  H          0.28044900       0.05874000       0.79849100
   188  H          0.78044900       0.55874000       0.29849100
   189  H          0.78044900       0.94126000       0.79849100
   190  H          0.28044900       0.44126000       0.29849100
   191  H          0.71955100       0.94126000       0.20150900
   192  H          0.21955100       0.44126000       0.70150900
   193  H          0.30025100       0.22084000       0.19060900
   194  H          0.80025100       0.72084000       0.69060900
   195  H          0.19974900       0.22084000       0.80939100
   196  H          0.69974900       0.72084000       0.30939100
   197  H          0.69974900       0.77916000       0.80939100
   198  H          0.19974900       0.27916000       0.30939100
   199  H          0.80025100       0.77916000       0.19060900
   200  H          0.30025100       0.27916000       0.69060900
