data_NITTAO
_symmetry_space_group_name_H-M    'P1'
_symmetry_Int_Tables_number       1
loop_
_symmetry_equiv_pos_site_id
_symmetry_equiv_pos_as_xyz
1 x,y,z
_cell_length_a                   7.43922
_cell_length_b                   15.24916
_cell_length_c                   19.87156
_cell_angle_alpha                91.1123
_cell_angle_beta                 95.1372
_cell_angle_gamma                96.9303
loop_
_atom_site_label
_atom_site_type_symbol
_atom_site_fract_x
_atom_site_fract_y
_atom_site_fract_z
     1  O          0.09393000       0.17651120       0.73241900
     2  O          0.90607000       0.82348880       0.26758100
     3  N          0.91567000       0.10737130       0.86112100
     4  N          0.08433000       0.89262870       0.13887900
     5  C          0.91926000       0.04542160       0.91934120
     6  C          0.08074000       0.95457840       0.08065880
     7  C          0.73176000      -0.00358830       0.92495130
     8  C          0.26824000       0.00358830       0.07504870
     9  C          0.59076000       0.05986190       0.93229140
    10  C          0.40924000       0.94013810       0.06770860
    11  C          0.59326000       0.12449190       0.87472140
    12  C          0.40674000       0.87550810       0.12527860
    13  C          0.78277000       0.17245160       0.87048130
    14  C          0.21723000       0.82754840       0.12951870
    15  C          0.10603000       0.15127170       0.85487130
    16  C          0.89397000       0.84872830       0.14512870
    17  C          0.12254000       0.21636170       0.79860140
    18  C          0.87746000       0.78363830       0.20139860
    19  H         -0.01960000       0.13930000       0.72820000
    20  H          0.01960000       0.86070000       0.27180000
    21  H          0.88260000       0.07720000       0.82331800
    22  H          0.11740000       0.92280000       0.17668200
    23  H          0.95760000       0.08220000       0.95931600
    24  H          0.04240000       0.91780000       0.04068400
    25  H          0.00660000       0.00330000       0.91220000
    26  H         -0.00660000      -0.00330000       0.08780000
    27  H          0.69560000       0.95720000       0.88641700
    28  H          0.30440000       0.04280000       0.11358300
    29  H          0.73360000       0.95720000       0.96141700
    30  H          0.26640000       0.04280000       0.03858300
    31  H          0.61260000       0.09520000       0.97351600
    32  H          0.38740000       0.90480000       0.02648400
    33  H          0.46840000       0.02330000       0.93220000
    34  H          0.53160000       0.97670000       0.06780000
    35  H          0.55460000       0.09420000       0.83471600
    36  H          0.44540000       0.90580000       0.16528400
    37  H          0.51850000       0.17330000       0.87961900
    38  H          0.48150000       0.82670000       0.12038100
    39  H          0.83360000       0.20721900       0.91181500
    40  H          0.16640000       0.79278100       0.08818500
    41  H          0.77960000       0.21320000       0.83021700
    42  H          0.22040000       0.78680000       0.16978300
    43  H          0.15250000       0.18320000       0.89831900
    44  H          0.84750000       0.81680000       0.10168100
    45  H          0.17350000       0.10130000       0.84931900
    46  H          0.82650000       0.89870000       0.15068100
    47  H          0.04350000       0.26720000       0.80011800
    48  H          0.95650000       0.73280000       0.19988200
    49  H          0.25350000       0.24830000       0.80620000
    50  H          0.74650000       0.75170000       0.19380000
    51  Cl         0.63702200       0.09345400       0.59406300
    52  Cl         0.36297800       0.90654600       0.40593700
    53  Cl         0.92197200       0.89239400       0.78792300
    54  Cl         0.07802800       0.10760600       0.21207700
    55  O          0.80688000       0.05623110       0.72974900
    56  O          0.19312000       0.94376890       0.27025100
    57  N          0.65257000       0.76087140       0.55609110
    58  N          0.34743000       0.23912860       0.44390890
    59  O          0.70687000       0.69088130       0.57351100
    60  O          0.29313000       0.30911870       0.42648900
    61  O          0.55827000       0.76802130       0.50260100
    62  O          0.44173000       0.23197870       0.49739900
    63  C          0.77557000       0.98883160       0.68935120
    64  C          0.22443000       0.01116840       0.31064880
    65  C          0.69267000      -0.00822840       0.62176120
    66  C          0.30733000       0.00822840       0.37823880
    67  C          0.65377000       0.91975170       0.57790120
    68  C          0.34623000       0.08024830       0.42209880
    69  C          0.69867000       0.83825160       0.60043120
    70  C          0.30133000       0.16174840       0.39956880
    71  C          0.78347000       0.82914160       0.66496120
    72  C          0.21653000       0.17085840       0.33503880
    73  C          0.81947000       0.90267170       0.70700120
    74  C          0.18053000       0.09732830       0.29299880
    75  H          0.60550000       0.92720000       0.53431800
    76  H          0.39450000       0.07280000       0.46568200
    77  H          0.80960000       0.77420000       0.68161500
    78  H          0.19040000       0.22580000       0.31838500
    79  Cl         0.13869800       0.09070400       0.59156300
    80  Cl         0.86130200       0.90929600       0.40843700
    81  Cl         0.40772800       0.88533400       0.78483300
    82  Cl         0.59227200       0.11466600       0.21516700
    83  O          0.30483000       0.04829130       0.72913900
    84  O          0.69517000       0.95170870       0.27086100
    85  N          0.15723000       0.75973150       0.54819120
    86  N          0.84277000       0.24026850       0.45180880
    87  O          0.20454000       0.68933130       0.56624110
    88  O          0.79546000       0.31066870       0.43375890
    89  O          0.07233000       0.76958130       0.49356110
    90  O          0.92767000       0.23041870       0.50643890
    91  C          0.27063000       0.98156160       0.68440120
    92  C          0.72937000       0.01843840       0.31559880
    93  C          0.19303000       0.98859160       0.61780130
    94  C          0.80697000       0.01140840       0.38219870
    95  C          0.15663000       0.91742170       0.57276130
    96  C          0.84337000       0.08257830       0.42723870
    97  C          0.20073000       0.83618160       0.59455130
    98  C          0.79927000       0.16381840       0.40544870
    99  C          0.28113000       0.82516160       0.65927130
   100  C          0.71887000       0.17483840       0.34072870
   101  C          0.31533000       0.89752170       0.70299120
   102  C          0.68467000       0.10247830       0.29700880
   103  H          0.24670000       0.09330000       0.71920000
   104  H          0.75330000       0.90670000       0.28080000
   105  H          0.11350000       0.92520000       0.53031900
   106  H          0.88650000       0.07480000       0.46968100
   107  H          0.30840000       0.76920000       0.67581600
   108  H          0.69160000       0.23080000       0.32418400
   109  O          0.65633000       0.32256120       0.76799900
   110  O          0.34367000       0.67743880       0.23200100
   111  N          0.44613000       0.38843130       0.63927100
   112  N          0.55387000       0.61156870       0.36072900
   113  C          0.44904000       0.44895170       0.58034130
   114  C          0.55096000       0.55104830       0.41965870
   115  C          0.28514000       0.49872170       0.57473130
   116  C          0.71486000       0.50127830       0.42526870
   117  C          0.10774000       0.43603190       0.56879140
   118  C          0.89226000       0.56396810       0.43120860
   119  C          0.10743000       0.37271180       0.62761130
   120  C          0.89257000       0.62728820       0.37238870
   121  C          0.27423000       0.32411160       0.63168130
   122  C          0.72577000       0.67588840       0.36831870
   123  C          0.61524000       0.34353180       0.64464130
   124  C          0.38476000       0.65646820       0.35535870
   125  C          0.62964000       0.28039170       0.70248140
   126  C          0.37036000       0.71960830       0.29751860
   127  H          0.57060000       0.35530000       0.77320000
   128  H          0.42940000       0.64470000       0.22680000
   129  H          0.44740000       0.42220000       0.67791700
   130  H          0.55260000       0.57780000       0.32208300
   131  H          0.45240000       0.41020000       0.54101600
   132  H          0.54760000       0.58980000       0.45898400
   133  H          0.56050000       0.48920000       0.58981800
   134  H          0.43950000       0.51080000       0.41018200
   135  H          0.29340000       0.53520000       0.61381800
   136  H          0.70660000       0.46480000       0.38618200
   137  H          0.29340000       0.54020000       0.53911700
   138  H          0.70660000       0.45980000       0.46088300
   139  H          0.09350000       0.40420000       0.52741900
   140  H          0.90650000       0.59580000       0.47258100
   141  H          0.00460000       0.46930000       0.57120000
   142  H         -0.00460000       0.53070000       0.42880000
   143  H          0.10840000       0.40620000       0.66771700
   144  H          0.89160000       0.59380000       0.33228300
   145  H          0.00150000       0.32720000       0.62101800
   146  H         -0.00150000       0.67280000       0.37898200
   147  H          0.27640000       0.28820000       0.59141700
   148  H          0.72360000       0.71180000       0.40858300
   149  H          0.27140000       0.28720000       0.66761600
   150  H          0.72860000       0.71280000       0.33238400
   151  H          0.72240000       0.39520000       0.65481600
   152  H          0.27760000       0.60480000       0.34518400
   153  H          0.61850000       0.31320000       0.60411800
   154  H          0.38150000       0.68680000       0.39588200
   155  H          0.51950000       0.22830000       0.69961900
   156  H          0.48050000       0.77170000       0.30038100
   157  H          0.72550000       0.24720000       0.70181600
   158  H          0.27450000       0.75280000       0.29818400
   159  Cl         0.30108800       0.39794400       0.90472300
   160  Cl         0.69891200       0.60205600       0.09527700
   161  Cl         0.58438800       0.60727400       0.71326300
   162  Cl         0.41561200       0.39272600       0.28673700
   163  N          0.47593000       0.73110140       0.94602110
   164  N          0.52407000       0.26889860       0.05397890
   165  O          0.55393000       0.80202130       0.92968110
   166  O          0.44607000       0.19797870       0.07031890
   167  O          0.40063000       0.72224130      -0.00132900
   168  O          0.59937000       0.27775870       0.00132900
   169  O          0.42362000       0.43960120       0.76948900
   170  O          0.57638000       0.56039880       0.23051100
   171  C          0.43983000       0.50618160       0.81047120
   172  C          0.56017000       0.49381840       0.18952880
   173  C          0.38663000       0.50133150       0.87786120
   174  C          0.61337000       0.49866850       0.12213880
   175  C          0.39863000       0.57227170       0.92231120
   176  C          0.60137000       0.42772830       0.07768880
   177  C          0.46923000       0.65519160       0.90084130
   178  C          0.53077000       0.34480840       0.09915870
   179  C          0.52753000       0.66622160       0.83671130
   180  C          0.47247000       0.33377840       0.16328870
   181  C          0.51263000       0.59369170       0.79380120
   182  C          0.48737000       0.40630830       0.20619880
   183  H          0.36950000       0.56520000       0.96420000
   184  H          0.63050000       0.43480000       0.03580000
   185  H          0.57050000       0.72320000       0.82271700
   186  H          0.42950000       0.27680000       0.17728300
   187  Cl         0.80518800       0.41643400       0.90988300
   188  Cl         0.19481200       0.58356600       0.09011700
   189  Cl         0.07793800       0.61321400       0.71144300
   190  Cl         0.92206200       0.38678600       0.28855700
   191  N         -0.00407000       0.75042150       0.94312110
   192  N          0.00407000       0.24957850       0.05687890
   193  O          0.07363000       0.81993130       0.92444100
   194  O          0.92637000       0.18006870       0.07555900
   195  O          0.92513000       0.74365140      -0.00318900
   196  O          0.07487000       0.25634860       0.00318900
   197  O          0.92743000       0.45304130       0.77141900
   198  O          0.07257000       0.54695870       0.22858100
   199  C          0.94463000       0.52179170       0.81456120
   200  C          0.05537000       0.47820830       0.18543880
   201  C          0.89393000       0.51756160       0.88102120
   202  C          0.10607000       0.48243840       0.11897880
   203  C          0.91053000       0.59126170       0.92375120
   204  C          0.08947000       0.40873830       0.07624880
   205  C         -0.01667000       0.67173170       0.89950130
   206  C          0.01667000       0.32826830       0.10049870
   207  C          0.04043000       0.67972170       0.83516130
   208  C          0.95957000       0.32027830       0.16483870
   209  C          0.01933000       0.60485170       0.79360120
   210  C         -0.01933000       0.39514830       0.20639880
   211  H          0.83670000       0.41240000       0.77830000
   212  H          0.16330000       0.58760000       0.22170000
   213  H          0.87940000       0.58620000       0.96581800
   214  H          0.12060000       0.41380000       0.03418200
   215  H          0.08450000       0.73330000       0.81801800
   216  H          0.91550000       0.26670000       0.18198200
