data_NIWMOZ
_symmetry_space_group_name_H-M    'P1'
_symmetry_Int_Tables_number       1
loop_
_symmetry_equiv_pos_site_id
_symmetry_equiv_pos_as_xyz
1 x,y,z
_cell_length_a                   8.53642
_cell_length_b                   11.81523
_cell_length_c                   13.41374
_cell_angle_alpha                103.60401
_cell_angle_beta                 106.94701
_cell_angle_gamma                92.50801
loop_
_atom_site_label
_atom_site_type_symbol
_atom_site_fract_x
_atom_site_fract_y
_atom_site_fract_z
     1  C          0.35302190       0.39265140       0.82651880
     2  C          0.64697810       0.60734860       0.17348120
     3  H          0.45151000       0.35800800       0.85843200
     4  H          0.54849000       0.64199200       0.14156800
     5  H          0.37731600       0.43853100       0.77956300
     6  H          0.62268400       0.56146900       0.22043700
     7  H          0.26281200       0.33009100       0.78402000
     8  H          0.73718800       0.66990900       0.21598000
     9  C          0.11071180       0.52637140       0.85060860
    10  C          0.88928820       0.47362860       0.14939140
    11  H          0.04543400       0.45644700       0.79663200
    12  H          0.95456600       0.54355300       0.20336800
    13  H          0.13985000       0.58303800       0.81410900
    14  H          0.86015000       0.41696200       0.18589100
    15  H          0.04593900       0.56186000       0.89664300
    16  H          0.95406100       0.43814000       0.10335700
    17  O          0.23601130       0.40575900      -0.01032800
    18  O          0.76398870       0.59424100       0.01032800
    19  S          0.29375400       0.48606300       0.93120700
    20  S          0.70624600       0.51393700       0.06879300
    21  C          0.34233150       0.61433100       0.51130100
    22  C          0.65766850       0.38566900       0.48869900
    23  C          0.42991150       0.73549100       0.55395100
    24  C          0.57008850       0.26450900       0.44604900
    25  C          0.50652150       0.89899100       0.72383100
    26  C          0.49347850       0.10100900       0.27616900
    27  H          0.60479600       0.92306400       0.70401300
    28  H          0.39520400       0.07693600       0.29598700
    29  C          0.56241150       0.90026100       0.84229100
    30  C          0.43758850       0.09973900       0.15770900
    31  C          0.49480160       0.81788100       0.87799100
    32  C          0.50519840       0.18211900       0.12200900
    33  C          0.37597160       0.70217100       0.70710100
    34  C          0.62402840       0.29782900       0.29289900
    35  C          0.32514150       0.55462100       0.40950100
    36  C          0.67485850       0.44537900       0.59049900
    37  H          0.37039400       0.59672100       0.37006800
    38  H          0.62960600       0.40327900       0.62993200
    39  C          0.24873150       0.43626110       0.34977100
    40  C          0.75126850       0.56373890       0.65022900
    41  C          0.24703150       0.39797110       0.24127100
    42  C          0.75296850       0.60202890       0.75872900
    43  C          0.17151160       0.28629110       0.17878110
    44  C          0.82848840       0.71370890       0.82121890
    45  H          0.17191300       0.26079300       0.10620200
    46  H          0.82808700       0.73920700       0.89379800
    47  C          0.09602170       0.21247110       0.22200110
    48  C          0.90397830       0.78752890       0.77799890
    49  H          0.04303400       0.13722500       0.17848800
    50  H          0.95696600       0.86277500       0.82151200
    51  C          0.09737180       0.24802120       0.32905110
    52  C          0.90262820       0.75197880       0.67094890
    53  H          0.04697600       0.19691600       0.35895800
    54  H          0.95302400       0.80308400       0.64104200
    55  C          0.17312180       0.35889120       0.39154110
    56  C          0.82687820       0.64110880       0.60845890
    57  H          0.17371500       0.38289800       0.46441300
    58  H          0.82628500       0.61710200       0.53558700
    59  C          0.37569150       0.97938100       0.69395100
    60  C          0.62430850       0.02061900       0.30604900
    61  C          0.24114160       0.98279110       0.73307110
    62  C          0.75885840       0.01720890       0.26692890
    63  H          0.23442800       0.93851100       0.78264600
    64  H          0.76557200       0.06148900       0.21735400
    65  C          0.11639160       0.05068120       0.69998110
    66  C          0.88360840       0.94931880       0.30001890
    67  H          0.02378500       0.05222000       0.72576000
    68  H          0.97621500       0.94778000       0.27424000
    69  C          0.12975160       0.11596110       0.62877110
    70  C          0.87024840       0.88403890       0.37122890
    71  C          0.26372170       0.11619120       0.59085120
    72  C          0.73627830       0.88380880       0.40914880
    73  H          0.27184800       0.16255800       0.54310800
    74  H          0.72815200       0.83744200       0.45689200
    75  C          0.38680170       0.04706110       0.62399110
    76  C          0.61319830       0.95293890       0.37600890
    77  H          0.47952900       0.04624600       0.59837500
    78  H          0.52047100       0.95375400       0.40162500
    79  C          0.69695160      -0.00825890       0.91421110
    80  C          0.30304840       0.00825890       0.08578890
    81  C          0.85784180       0.16507120       0.92249120
    82  C          0.14215820       0.83492880       0.07750880
    83  H          0.96642800       0.13613100       0.92840400
    84  H          0.03357200       0.86386900       0.07159600
    85  H          0.85115300       0.19690700      -0.00388200
    86  H          0.14884700       0.80309300       0.00388200
    87  C          0.83672000       0.25831140       0.86193140
    88  C          0.16328000       0.74168860       0.13806860
    89  H          0.83923600       0.22480100       0.78835400
    90  H          0.16076400       0.77519900       0.21164600
    91  H          0.92650500       0.32262000       0.89879100
    92  H          0.07349500       0.67738000       0.10120900
    93  H          0.73074200       0.28829600       0.85916100
    94  H          0.26925800       0.71170400       0.14083900
    95  C          0.53234180       0.81556110      -0.00653900
    96  C          0.46765820       0.18443890       0.00653900
    97  H          0.62395700       0.76935500       0.01223500
    98  H          0.37604300       0.23064500       0.98776500
    99  H          0.43463200       0.77994400       0.00412600
   100  H          0.56536800       0.22005600      -0.00412600
   101  H          0.56303500       0.89586100       0.03972000
   102  H          0.43696500       0.10413900       0.96028000
   103  Br         0.96164800       0.21031200       0.58433200
   104  Br         0.03835200       0.78968800       0.41566800
   105  N          0.44203130       0.77676900       0.66216900
   106  N          0.55796870       0.22323100       0.33783100
   107  N          0.38591140       0.71983900       0.80719900
   108  N          0.61408860       0.28016100       0.19280100
   109  O          0.48279120       0.79297800       0.50459800
   110  O          0.51720880       0.20702200       0.49540200
   111  O          0.31704130       0.47339900       0.20088800
   112  O          0.68295870       0.52660100       0.79911200
   113  H          0.28965300       0.44840700       0.13341600
   114  H          0.71034700       0.55159300       0.86658400
   115  O          0.77584130      -0.00264100       0.00679800
   116  O          0.22415870       0.00264100      -0.00679800
   117  O          0.72583120       0.07085800       0.86197800
   118  O          0.27416880       0.92914200       0.13802200
   119  S          0.27934400       0.57067300       0.61134300
   120  S          0.72065600       0.42932700       0.38865700
