data_NMHCOU
_symmetry_space_group_name_H-M    'P1'
_symmetry_Int_Tables_number       1
loop_
_symmetry_equiv_pos_site_id
_symmetry_equiv_pos_as_xyz
1 x,y,z
_cell_length_a                   12.7767
_cell_length_b                   11.3236
_cell_length_c                   10.1495
_cell_angle_alpha                97.705
_cell_angle_beta                 109.414
_cell_angle_gamma                105.976
loop_
_atom_site_label
_atom_site_type_symbol
_atom_site_fract_x
_atom_site_fract_y
_atom_site_fract_z
     1  O          0.76890000       0.23130000       0.24320000
     2  O          0.23110000       0.76870000       0.75680000
     3  C          0.81170000       0.32070000       0.37050000
     4  C          0.18830000       0.67930000       0.62950000
     5  O          0.87970000       0.42320000       0.37750000
     6  O          0.12030000       0.57680000       0.62250000
     7  C          0.77790000       0.28860000       0.48750000
     8  C          0.22210000       0.71140000       0.51250000
     9  C          0.69720000       0.17150000       0.46380000
    10  C          0.30280000       0.82850000       0.53620000
    11  O          0.65470000       0.13450000       0.56130000
    12  O          0.34530000       0.86550000       0.43870000
    13  C          0.57700000       0.95260000       0.30100000
    14  C          0.42300000       0.04740000       0.69900000
    15  C          0.58560000       0.90380000       0.06810000
    16  C          0.41440000       0.09620000       0.93190000
    17  C          0.66090000       0.02520000       0.09160000
    18  C          0.33910000       0.97480000       0.90840000
    19  C          0.69430000       0.11070000       0.22280000
    20  C          0.30570000       0.88930000       0.77720000
    21  C          0.65460000       0.07710000       0.32910000
    22  C          0.34540000       0.92290000       0.67090000
    23  O          0.61470000       0.52820000       0.67100000
    24  O          0.38530000       0.47180000       0.32900000
    25  C          0.67160000       0.44360000       0.65940000
    26  C          0.32840000       0.55640000       0.34060000
    27  O          0.61970000       0.33650000       0.66180000
    28  O          0.38030000       0.66350000       0.33820000
    29  C          0.78470000       0.48550000       0.64620000
    30  C          0.21530000       0.51450000       0.35380000
    31  C          0.82970000       0.60830000       0.64240000
    32  C          0.17030000       0.39170000       0.35760000
    33  O          0.93080000       0.65870000       0.62520000
    34  O          0.06920000       0.34130000       0.37480000
    35  C          0.81400000       0.82630000       0.66040000
    36  C          0.18600000       0.17370000       0.33960000
    37  C          0.75160000       0.90490000       0.67620000
    38  C          0.24840000       0.09510000       0.32380000
    39  C          0.64470000       0.85800000       0.69050000
    40  C          0.35530000       0.14200000       0.30950000
    41  C          0.59930000       0.73260000       0.68950000
    42  C          0.40070000       0.26740000       0.31050000
    43  C          0.66300000       0.65400000       0.67290000
    44  C          0.33700000       0.34600000       0.32710000
    45  C          0.76980000       0.69780000       0.65870000
    46  C          0.23020000       0.30220000       0.34130000
    47  C          0.84560000       0.38890000       0.63120000
    48  C          0.15440000       0.61110000       0.36880000
    49  C          0.88630000       0.33550000       0.76400000
    50  C          0.11370000       0.66450000       0.23600000
    51  C          0.86350000       0.36860000       0.88370000
    52  C          0.13650000       0.63140000       0.11630000
    53  C          0.90000000       0.31900000       0.00550000
    54  C          0.10000000       0.68100000      -0.00550000
    55  C          0.96000000       0.23890000       0.00690000
    56  C          0.04000000       0.76110000      -0.00690000
    57  C         -0.00730000       0.20620000       0.89040000
    58  C          0.00730000       0.79380000       0.10960000
    59  C          0.06210000       0.12670000       0.89340000
    60  C          0.93790000       0.87330000       0.10660000
    61  C          0.09450000       0.09680000       0.78240000
    62  C          0.90550000       0.90320000       0.21760000
    63  C          0.06220000       0.14690000       0.66330000
    64  C          0.93780000       0.85310000       0.33670000
    65  C         -0.00460000       0.22430000       0.65510000
    66  C          0.00460000       0.77570000       0.34490000
    67  C          0.95670000       0.25560000       0.76700000
    68  C          0.04330000       0.74440000       0.23300000
    69  H          0.65200000       0.20500000       0.61600000
    70  H          0.34800000       0.79500000       0.38400000
    71  H          0.54700000       0.92700000       0.37700000
    72  H          0.45300000       0.07300000       0.62300000
    73  H          0.48700000       0.78300000       0.15100000
    74  H          0.51300000       0.21700000       0.84900000
    75  H          0.56300000       0.84300000       0.98300000
    76  H          0.43700000       0.15700000       0.01700000
    77  H          0.69000000       0.05500000       0.02500000
    78  H          0.31000000       0.94500000       0.97500000
    79  H          0.95600000       0.59700000       0.59400000
    80  H          0.04400000       0.40300000       0.40600000
    81  H          0.89300000       0.86000000       0.65500000
    82  H          0.10700000       0.14000000       0.34500000
    83  H          0.78100000      -0.00500000       0.67600000
    84  H          0.21900000       0.00500000       0.32400000
    85  H          0.59900000       0.91100000       0.70300000
    86  H          0.40100000       0.08900000       0.29700000
    87  H          0.52400000       0.69400000       0.69400000
    88  H          0.47600000       0.30600000       0.30600000
    89  H          0.91800000       0.43400000       0.62500000
    90  H          0.08200000       0.56600000       0.37500000
    91  H          0.82100000       0.42300000       0.88600000
    92  H          0.17900000       0.57700000       0.11400000
    93  H          0.87700000       0.34600000       0.08200000
    94  H          0.12300000       0.65400000       0.91800000
    95  H         -0.01500000       0.20200000       0.08900000
    96  H          0.01500000       0.79800000       0.91100000
    97  H          0.08700000       0.09800000       0.97800000
    98  H          0.91300000       0.90200000       0.02200000
    99  H          0.14000000       0.03900000       0.78700000
   100  H          0.86000000       0.96100000       0.21300000
   101  H          0.09200000       0.13100000       0.58400000
   102  H          0.90800000       0.86900000       0.41600000
   103  H          0.97600000       0.26000000       0.57200000
   104  H          0.02400000       0.74000000       0.42800000
   105  C          0.54370000       0.86810000       0.17190000
   106  C          0.45630000       0.13190000       0.82810000
   107  C          0.69430000       0.53260000       0.05290000
   108  C          0.30570000       0.46740000       0.94710000
   109  C          0.63880000       0.49550000       0.15310000
   110  C          0.36120000       0.50450000       0.84690000
   111  O          0.58160000       0.38760000       0.13690000
   112  O          0.41840000       0.61240000       0.86310000
   113  C          0.65590000       0.59270000       0.27510000
   114  C          0.34410000       0.40730000       0.72490000
   115  H          0.77600000       0.57400000       0.09900000
   116  H          0.22400000       0.42600000       0.90100000
   117  H          0.69000000       0.60500000       0.03800000
   118  H          0.31000000       0.39500000       0.96200000
   119  H          0.67000000       0.46800000      -0.01300000
   120  H          0.33000000       0.53200000       0.01300000
   121  H          0.73100000       0.64500000       0.32300000
   122  H          0.26900000       0.35500000       0.67700000
   123  H          0.62200000       0.64700000       0.22600000
   124  H          0.37800000       0.35300000       0.77400000
   125  H          0.60600000       0.56700000       0.32800000
   126  H          0.39400000       0.43300000       0.67200000
