data_NOBDIT
_symmetry_space_group_name_H-M    'P1'
_symmetry_Int_Tables_number       1
loop_
_symmetry_equiv_pos_site_id
_symmetry_equiv_pos_as_xyz
1 x,y,z
_cell_length_a                   7.76208
_cell_length_b                   13.803815
_cell_length_c                   13.854415
_cell_angle_alpha                90.0
_cell_angle_beta                 104.0622
_cell_angle_gamma                90.0
loop_
_atom_site_label
_atom_site_type_symbol
_atom_site_fract_x
_atom_site_fract_y
_atom_site_fract_z
     1  C          0.78896000       0.82417000       0.96338000
     2  C          0.21104000       0.32417000       0.03662000
     3  H          0.71640000       0.84510000       0.90340000
     4  H          0.28360000       0.34510000       0.09660000
     5  C          0.94945000       0.69558000       0.06872000
     6  C          0.05055000       0.19558000       0.93128000
     7  H         -0.01910000       0.63050000       0.07480000
     8  H          0.01910000       0.13050000       0.92520000
     9  C          0.85366000       0.88538000       0.04270190
    10  C          0.14634000       0.38538000       0.95729810
    11  C          0.95997000       0.85489820       0.13258180
    12  C          0.04003000       0.35489820       0.86741820
    13  C         -0.01103000       0.94182810       0.19093190
    14  C          0.01103000       0.44182810       0.80906810
    15  C          0.08683000       0.95243820       0.29759180
    16  C          0.91317000       0.45243820       0.70240820
    17  H          0.20230000       0.92030000       0.30700000
    18  H          0.79770000       0.42030000       0.69300000
    19  C         -0.01634000       0.90331820       0.36462180
    20  C          0.01634000       0.40331820       0.63537820
    21  H          0.86610000       0.93180000       0.35280000
    22  H          0.13390000       0.43180000       0.64720000
    23  H          0.96980000       0.83510000       0.34780000
    24  H          0.03020000       0.33510000       0.65220000
    25  C          0.11834000       0.05754190       0.32979190
    26  C          0.88166000       0.55754190       0.67020810
    27  H          0.18820000       0.08900000       0.28960000
    28  H          0.81180000       0.58900000       0.71040000
    29  H          0.00520000       0.09090000       0.31890000
    30  H         -0.00520000       0.59090000       0.68110000
    31  C          0.21424000       0.06502000       0.43820190
    32  C          0.78576000       0.56502000       0.56179810
    33  H          0.32990000       0.03450000       0.44840000
    34  H          0.67010000       0.53450000       0.55160000
    35  H          0.23250000       0.13270000       0.45650000
    36  H          0.76750000       0.63270000       0.54350000
    37  C          0.07644000       0.91360830       0.47390180
    38  C          0.92356000       0.41360830       0.52609820
    39  H          0.00310000       0.88490000       0.51390000
    40  H         -0.00310000       0.38490000       0.48610000
    41  H          0.18800000       0.87860000       0.48730000
    42  H          0.81200000       0.37860000       0.51270000
    43  C          0.20534000       0.02285180       0.61058190
    44  C          0.79466000       0.52285180       0.38941810
    45  H          0.32120000      -0.00710000       0.62000000
    46  H          0.67880000       0.49290000       0.38000000
    47  H          0.13850000       0.98620000       0.64890000
    48  H          0.86150000       0.48620000       0.35110000
    49  C          0.22864000       0.12492000       0.64972000
    50  C          0.77136000       0.62492000       0.35028000
    51  H          0.11300000       0.15240000       0.64850000
    52  H          0.88700000       0.65240000       0.35150000
    53  H          0.28240000       0.16390000       0.60670000
    54  H          0.71760000       0.66390000       0.39330000
    55  C          0.34324000       0.12877190       0.75432000
    56  C          0.65676000       0.62877190       0.24568000
    57  H          0.28110000       0.10140000       0.80080000
    58  H          0.71890000       0.60140000       0.19920000
    59  H          0.45260000       0.09300000       0.75930000
    60  H          0.54740000       0.59300000       0.24070000
    61  C          0.52763000       0.35302180       0.87501180
    62  C          0.47237000       0.85302180       0.12498820
    63  C          0.49334000       0.50962000       0.80222000
    64  C          0.50666000       0.00962000       0.19778000
    65  H          0.44530000       0.53810000       0.85330000
    66  H          0.55470000       0.03810000       0.14670000
    67  H          0.44190000       0.54040000       0.73970000
    68  H          0.55810000       0.04040000       0.26030000
    69  H          0.61980000       0.51820000       0.81850000
    70  H          0.38020000       0.01820000       0.18150000
    71  C          0.48753000       0.25370180       0.86289180
    72  C          0.51247000       0.75370180       0.13710820
    73  C          0.55934000       0.19002000       0.93862000
    74  C          0.44066000       0.69002000       0.06138000
    75  H          0.53490000       0.12410000       0.93040000
    76  H          0.46510000       0.62410000       0.06960000
    77  C          0.66754000       0.22372000       0.02662000
    78  C          0.33246000       0.72372000       0.97338000
    79  H          0.71460000       0.18020000       0.07740000
    80  H          0.28540000       0.68020000       0.92260000
    81  C          0.63473000       0.38561190       0.96237190
    82  C          0.36527000       0.88561190       0.03762810
    83  H          0.66030000       0.45140000       0.97040000
    84  H          0.33970000       0.95140000       0.02960000
    85  C          0.70674000       0.32116190       0.03996190
    86  C          0.29326000       0.82116190       0.96003810
    87  C          0.82404000       0.35912000       0.13182000
    88  C          0.17596000       0.85912000       0.86818000
    89  C          0.90255000       0.29173000       0.21472000
    90  C          0.09745000       0.79173000       0.78528000
    91  H         -0.00800000       0.32500000       0.26340000
    92  H          0.00800000       0.82500000       0.73660000
    93  H          0.95490000       0.23750000       0.18910000
    94  H          0.04510000       0.73750000       0.81090000
    95  H          0.81110000       0.26920000       0.24510000
    96  H          0.18890000       0.76920000       0.75490000
    97  C          0.01064000       0.75818000       0.14682000
    98  C         -0.01064000       0.25818000       0.85318000
    99  H          0.08290000       0.73680000       0.20670000
   100  H          0.91710000       0.23680000       0.79330000
   101  C          0.84106000       0.73007000       0.98118000
   102  C          0.15894000       0.23007000       0.01882000
   103  F          0.78077000       0.66486830       0.90691840
   104  F          0.21923000       0.16486830       0.09308160
   105  N          0.91087000       0.01577170       0.14121170
   106  N          0.08913000       0.51577170       0.85878830
   107  N          0.11183000       0.01746140       0.50328140
   108  N          0.88817000       0.51746140       0.49671860
   109  O          0.82177000       0.98121850       0.04471140
   110  O          0.17823000       0.48121850       0.95528860
   111  O          0.45313000       0.40944130       0.79509140
   112  O          0.54687000       0.90944130       0.20490860
   113  O          0.37923000       0.22924130       0.77449120
   114  O          0.62077000       0.72924130       0.22550880
   115  O          0.85753000       0.44601170       0.14068170
   116  O          0.14247000       0.94601170       0.85931830
   117  C          0.25534000       0.63822000       0.47643000
   118  C          0.74466000       0.13822000       0.52357000
   119  C          0.44744000       0.76692000       0.43062000
   120  C          0.55256000       0.26692000       0.56938000
   121  H          0.41160000       0.74630000       0.36480000
   122  H          0.58840000       0.24630000       0.63520000
   123  C          0.56304000       0.84613000       0.45623000
   124  C          0.43696000       0.34613000       0.54377000
   125  H          0.60520000       0.87820000       0.40760000
   126  H          0.39480000       0.37820000       0.59240000
   127  C          0.61334000       0.87562000       0.55353000
   128  C          0.38666000       0.37562000       0.44647000
   129  H          0.68870000       0.92860000       0.57040000
   130  H          0.31130000       0.42860000       0.42960000
   131  C          0.55484000       0.82882000       0.62592000
   132  C          0.44516000       0.32882000       0.37408000
   133  C          0.44254000       0.75082000       0.60122000
   134  C          0.55746000       0.25082000       0.39878000
   135  H          0.40330000       0.71850000       0.65080000
   136  H          0.59670000       0.21850000       0.34920000
   137  C          0.38723000       0.71983190       0.50442000
   138  C          0.61277000       0.21983190       0.49558000
   139  O          0.20884000       0.61553000       0.38752000
   140  O          0.79116000       0.11553000       0.61248000
   141  O          0.19693000       0.60152000       0.54042000
   142  O          0.80307000       0.10152000       0.45958000
   143  H          0.25010000       0.61470000       0.60320000
   144  H          0.74990000       0.11470000       0.39680000
   145  O          0.59504000       0.85642000       0.72317170
   146  O          0.40496000       0.35642000       0.27682830
   147  H          0.65740000       0.90510000       0.73020000
   148  H          0.34260000       0.40510000       0.26980000
   149  O          0.20214000       0.50992000       0.23212000
   150  O          0.79786000       0.00992000       0.76788000
   151  H          0.20220000       0.54570000       0.29480000
   152  H          0.79780000       0.04570000       0.70520000
   153  H          0.08340000       0.48700000       0.19340000
   154  H          0.91660000       0.98700000       0.80660000
