data_NOBWIN
_symmetry_space_group_name_H-M    'P1'
_symmetry_Int_Tables_number       1
loop_
_symmetry_equiv_pos_site_id
_symmetry_equiv_pos_as_xyz
1 x,y,z
_cell_length_a                   3.72522
_cell_length_b                   22.27171
_cell_length_c                   10.56114
_cell_angle_alpha                90.0
_cell_angle_beta                 97.3924
_cell_angle_gamma                90.0
loop_
_atom_site_label
_atom_site_type_symbol
_atom_site_fract_x
_atom_site_fract_y
_atom_site_fract_z
     1  N          0.25513000       0.25045500       0.28305100
     2  N          0.74487000       0.75045500       0.21694900
     3  N          0.74487000       0.74954500       0.71694900
     4  N          0.25513000       0.24954500       0.78305100
     5  N          0.09493000       0.22181400       0.17425100
     6  N          0.90507000       0.72181400       0.32574900
     7  N          0.90507000       0.77818600       0.82574900
     8  N          0.09493000       0.27818600       0.67425100
     9  C          0.93563000       0.25263600       0.07755110
    10  C          0.06437000       0.75263600       0.42244890
    11  C          0.06437000       0.74736400       0.92244890
    12  C          0.93563000       0.24736400       0.57755110
    13  H          0.82982900       0.23121900       0.00430200
    14  H          0.17017100       0.73121900       0.49569800
    15  H          0.17017100       0.76878100      -0.00430200
    16  H          0.82982900       0.26878100       0.50430200
    17  C          0.91173000       0.31635500       0.07577110
    18  C          0.08827000       0.81635500       0.42422890
    19  C          0.08827000       0.68364500       0.92422890
    20  C          0.91173000       0.18364500       0.57577110
    21  C          0.74043000       0.34979600       0.97137890
    22  C          0.25957000       0.84979600       0.52862110
    23  C          0.25957000       0.65020400       0.02862110
    24  C          0.74043000       0.15020400       0.47137890
    25  H          0.63675500       0.33010800       0.89557900
    26  H          0.36324500       0.83010800       0.60442100
    27  H          0.36324500       0.66989200       0.10442100
    28  H          0.63675500       0.16989200       0.39557900
    29  C          0.72623000       0.41103600       0.98126880
    30  C          0.27377000       0.91103600       0.51873120
    31  C          0.27377000       0.58896400       0.01873120
    32  C          0.72623000       0.08896400       0.48126880
    33  H          0.61154200       0.43388200       0.91156400
    34  H          0.38845800       0.93388200       0.58843600
    35  H          0.38845800       0.56611800       0.08843600
    36  H          0.61154200       0.06611800       0.41156400
    37  C          0.87933000       0.44072500       0.09357120
    38  C          0.12067000       0.94072500       0.40642880
    39  C          0.12067000       0.55927500       0.90642880
    40  C          0.87933000       0.05927500       0.59357120
    41  H          0.86280500       0.48318900       0.09887700
    42  H          0.13719500       0.98318900       0.40112300
    43  H          0.13719500       0.51681100       0.90112300
    44  H          0.86280500       0.01681100       0.59887700
    45  C          0.05193000       0.40900500       0.19519120
    46  C          0.94807000       0.90900500       0.30480880
    47  C          0.94807000       0.59099500       0.80480880
    48  C          0.05193000       0.09099500       0.69519120
    49  H          0.15836400       0.42930000       0.26982100
    50  H          0.84163600       0.92930000       0.23017900
    51  H          0.84163600       0.57070000       0.73017900
    52  H          0.15836400       0.07070000       0.76982100
    53  C          0.06873000       0.34595500       0.18720110
    54  C          0.93127000       0.84595500       0.31279890
    55  C          0.93127000       0.65404500       0.81279890
    56  C          0.06873000       0.15404500       0.68720110
    57  C          0.23933000       0.30907500       0.28723110
    58  C          0.76067000       0.80907500       0.21276890
    59  C          0.76067000       0.69092500       0.71276890
    60  C          0.23933000       0.19092500       0.78723110
    61  H          0.34982100       0.32839100       0.36250700
    62  H          0.65017900       0.82839100       0.13749300
    63  H          0.65017900       0.67160900       0.63749300
    64  H          0.34982100       0.17160900       0.86250700
    65  C         -0.00197000       0.58127500       0.43655110
    66  C          0.00197000       0.08127500       0.06344890
    67  C          0.00197000       0.41872500       0.56344890
    68  C         -0.00197000       0.91872500       0.93655110
    69  C          0.92313000       0.51576500       0.45044110
    70  C          0.07687000       0.01576500       0.04955890
    71  C          0.07687000       0.48423500       0.54955890
    72  C          0.92313000       0.98423500       0.95044110
    73  H          0.76134800       0.49620800       0.38663500
    74  H          0.23865200      -0.00379200       0.11336500
    75  H          0.23865200       0.50379200       0.61336500
    76  H          0.76134800       0.00379200       0.88663500
    77  O          0.18873000       0.60977400       0.51747800
    78  O          0.81127000       0.10977400       0.98252200
    79  O          0.81127000       0.39022600       0.48252200
    80  O          0.18873000       0.89022600       0.01747800
    81  O          0.83403000       0.60349400       0.32883800
    82  O          0.16597000       0.10349400       0.17116200
    83  O          0.16597000       0.39650600       0.67116200
    84  O          0.83403000       0.89650600       0.82883800
    85  H          0.86346400       0.64087800       0.32815000
    86  H          0.13653600       0.14087800       0.17185000
    87  H          0.13653600       0.35912200       0.67185000
    88  H          0.86346400       0.85912200       0.82815000
