data_NOCVUA
_symmetry_space_group_name_H-M    'P1'
_symmetry_Int_Tables_number       1
loop_
_symmetry_equiv_pos_site_id
_symmetry_equiv_pos_as_xyz
1 x,y,z
_cell_length_a                   12.92477
_cell_length_b                   6.05892
_cell_length_c                   21.611012
_cell_angle_alpha                90.0
_cell_angle_beta                 98.7084
_cell_angle_gamma                90.0
loop_
_atom_site_label
_atom_site_type_symbol
_atom_site_fract_x
_atom_site_fract_y
_atom_site_fract_z
     1  S          0.28669500       0.13413110       0.57179300
     2  S          0.21330500       0.63413110       0.92820700
     3  S          0.71330500       0.86586890       0.42820700
     4  S          0.78669500       0.36586890       0.07179300
     5  Cl         0.33787600       0.48007130       0.66524400
     6  Cl         0.16212400      -0.01992870       0.83475600
     7  Cl         0.66212400       0.51992870       0.33475600
     8  Cl         0.83787600       0.01992870       0.16524400
     9  Cl         0.48620600       0.13018150       0.65438400
    10  Cl         0.01379400       0.63018150       0.84561600
    11  Cl         0.51379400       0.86981850       0.34561600
    12  Cl         0.98620600       0.36981850       0.15438400
    13  Cl         0.29602800       0.04037150       0.70555400
    14  Cl         0.20397200       0.54037150       0.79444600
    15  Cl         0.70397200       0.95962850       0.29444600
    16  Cl         0.79602800       0.45962850       0.20555400
    17  O          0.33675150       0.27083000       0.53095900
    18  O          0.16324850       0.77083000       0.96904100
    19  O          0.66324850       0.72917000       0.46904100
    20  O          0.83675150       0.22917000       0.03095900
    21  O          0.29964150       0.90027000       0.56496100
    22  O          0.20035850       0.40027000       0.93503900
    23  O          0.70035850       0.09973000       0.43503900
    24  O          0.79964150       0.59973000       0.06496100
    25  O          0.17774150       0.19573000       0.57339100
    26  O          0.32225850       0.69573000       0.92660900
    27  O          0.82225850       0.80427000       0.42660900
    28  O          0.67774150       0.30427000       0.07339100
    29  C          0.35272000       0.19675000       0.65109150
    30  C          0.14728000       0.69675000       0.84890850
    31  C          0.64728000       0.80325000       0.34890850
    32  C          0.85272000       0.30325000       0.15109150
    33  S          0.20680500       0.87878120       0.39501300
    34  S          0.29319500       0.37878120       0.10498700
    35  S          0.79319500       0.12121880       0.60498700
    36  S          0.70680500       0.62121880       0.89501300
    37  Cl         0.18453700       0.63999150       0.27627400
    38  Cl         0.31546300       0.13999150       0.22372600
    39  Cl         0.81546300       0.36000850       0.72372600
    40  Cl         0.68453700       0.86000850       0.77627400
    41  Cl         0.01018600       0.65910160       0.34524400
    42  Cl         0.48981400       0.15910160       0.15475600
    43  Cl        -0.01018600       0.34089840       0.65475600
    44  Cl         0.51018600       0.84089840       0.84524400
    45  Cl         0.07408700       0.04923170       0.28490400
    46  Cl         0.42591300       0.54923170       0.21509600
    47  Cl         0.92591300       0.95076830       0.71509600
    48  Cl         0.57408700       0.45076830       0.78490400
    49  O          0.23651160       0.66743000       0.42459100
    50  O          0.26348840       0.16743000       0.07540900
    51  O          0.76348840       0.33257000       0.57540900
    52  O          0.73651160       0.83257000       0.92459100
    53  O          0.14653160       0.01314000       0.43129100
    54  O          0.35346840       0.51314000       0.06870900
    55  O          0.85346840      -0.01314000       0.56870900
    56  O          0.64653160       0.48686000       0.93129100
    57  O          0.29232160      -0.01236000       0.37220110
    58  O          0.20767840       0.48764000       0.12779890
    59  O          0.70767840       0.01236000       0.62779890
    60  O          0.79232160       0.51236000       0.87220110
    61  C          0.11702000       0.80475000       0.32347140
    62  C          0.38298000       0.30475000       0.17652860
    63  C          0.88298000       0.19525000       0.67652860
    64  C          0.61702000       0.69525000       0.82347140
    65  O          0.38033190       0.38155000       0.39135120
    66  O          0.11966810       0.88155000       0.10864880
    67  O          0.61966810       0.61845000       0.60864880
    68  O          0.88033190       0.11845000       0.89135120
    69  O          0.54458180       0.35664000       0.46142110
    70  O          0.95541820       0.85664000       0.03857890
    71  O          0.45541820       0.64336000       0.53857890
    72  O          0.04458180       0.14336000       0.96142110
    73  H          0.35030000       0.27370000       0.38751600
    74  H          0.14970000       0.77370000       0.11248400
    75  H          0.64970000       0.72630000       0.61248400
    76  H          0.85030000       0.22630000       0.88751600
    77  H          0.34040000       0.47090000       0.40020000
    78  H          0.15960000       0.97090000       0.09980000
    79  H          0.65960000       0.52910000       0.59980000
    80  H          0.84040000       0.02910000       0.90020000
    81  H          0.45740000       0.37080000       0.42520000
    82  H          0.04260000       0.87080000       0.07480000
    83  H          0.54260000       0.62920000       0.57480000
    84  H          0.95740000       0.12920000       0.92520000
    85  H          0.57630000       0.49380000       0.46220000
    86  H          0.92370000      -0.00620000       0.03780000
    87  H          0.42370000       0.50620000       0.53780000
    88  H          0.07630000       0.00620000       0.96220000
    89  H          0.58240000       0.26580000       0.45620000
    90  H          0.91760000       0.76580000       0.04380000
    91  H          0.41760000       0.73420000       0.54380000
    92  H          0.08240000       0.23420000       0.95620000
    93  O          0.11227180       0.54685000       0.50666120
    94  O          0.38772820       0.04685000       0.99333880
    95  O          0.88772820       0.45315000       0.49333880
    96  O          0.61227180       0.95315000       0.00666120
    97  H          0.13130000       0.44370000       0.52291700
    98  H          0.36870000       0.94370000       0.97708300
    99  H          0.86870000       0.55630000       0.47708300
   100  H          0.63130000       0.05630000       0.02291700
   101  H          0.08750000       0.66510000       0.53230000
   102  H          0.41250000       0.16510000       0.96770000
   103  H          0.91250000       0.33490000       0.46770000
   104  H          0.58750000       0.83490000       0.03230000
   105  H          0.17150000       0.59910000       0.48230000
   106  H          0.32850000       0.09910000       0.01770000
   107  H          0.82850000       0.40090000       0.51770000
   108  H          0.67150000       0.90090000       0.98230000
   109  O          0.05462000       0.82624000       0.57388140
   110  O          0.44538000       0.32624000       0.92611860
   111  O          0.94538000       0.17376000       0.42611860
   112  O          0.55462000       0.67376000       0.07388140
   113  H          0.08840000       0.95790000       0.57320000
   114  H          0.41160000       0.45790000       0.92680000
   115  H          0.91160000       0.04210000       0.42680000
   116  H          0.58840000       0.54210000       0.07320000
   117  H         -0.00850000       0.85780000       0.56920000
   118  H          0.50850000       0.35780000       0.93080000
   119  H          0.00850000       0.14220000       0.43080000
   120  H          0.49150000       0.64220000       0.06920000
