data_NODGET
_symmetry_space_group_name_H-M    'P1'
_symmetry_Int_Tables_number       1
loop_
_symmetry_equiv_pos_site_id
_symmetry_equiv_pos_as_xyz
1 x,y,z
_cell_length_a                   9.9115
_cell_length_b                   10.3586
_cell_length_c                   15.2808
_cell_angle_alpha                90.0688
_cell_angle_beta                 98.5777
_cell_angle_gamma                111.4027
loop_
_atom_site_label
_atom_site_type_symbol
_atom_site_fract_x
_atom_site_fract_y
_atom_site_fract_z
     1  O          0.95054180       0.19796190       0.15064110
     2  O          0.04945820       0.80203810       0.84935890
     3  O          0.26559170       0.62271180       0.30809110
     4  O          0.73440830       0.37728820       0.69190890
     5  N          0.19162000       0.33172000       0.17331130
     6  N          0.80838000       0.66828000       0.82668870
     7  N          0.28322000       0.46172000       0.21408130
     8  N          0.71678000       0.53828000       0.78591870
     9  C          0.04593000       0.41593000       0.24795160
    10  C          0.95407000       0.58407000       0.75204840
    11  C          0.05423000       0.31573000       0.19274160
    12  C          0.94577000       0.68427000       0.80725840
    13  C          0.19263000       0.50223000       0.25935160
    14  C          0.80737000       0.49777000       0.74064840
    15  C          0.21913000       0.29163000       0.08987160
    16  C          0.78087000       0.70837000       0.91012840
    17  C          0.17343000       0.15143000       0.06677160
    18  C          0.82657000       0.84857000       0.93322840
    19  H          0.12790000       0.08450000       0.10630000
    20  H          0.87210000       0.91550000       0.89370000
    21  C          0.19443000       0.10943000       0.98558840
    22  C          0.80557000       0.89057000       0.01441160
    23  H          0.16170000       0.01320000       0.96880000
    24  H          0.83830000      -0.01320000       0.03120000
    25  C          0.26243000       0.20653000       0.92905820
    26  C          0.73757000       0.79347000       0.07094180
    27  H          0.27670000       0.17730000       0.87330000
    28  H          0.72330000       0.82270000       0.12670000
    29  C          0.31003000       0.34633000       0.95333820
    30  C          0.68997000       0.65367000       0.04666180
    31  H          0.35780000       0.41320000       0.91450000
    32  H          0.64220000       0.58680000       0.08550000
    33  C          0.28823000       0.38913000       0.03385170
    34  C          0.71177000       0.61087000       0.96614830
    35  H          0.32070000       0.48540000       0.05050000
    36  H          0.67930000       0.51460000       0.94950000
    37  C          0.43653000       0.48793000       0.23864150
    38  C          0.56347000       0.51207000       0.76135850
    39  C          0.48673000       0.37993000       0.24238150
    40  C          0.51327000       0.62007000       0.75761850
    41  H          0.41910000       0.28670000       0.23130000
    42  H          0.58090000       0.71330000       0.76870000
    43  C          0.63593000       0.40753000       0.26225160
    44  C          0.36407000       0.59247000       0.73774840
    45  H          0.67060000       0.33330000       0.26270000
    46  H          0.32940000       0.66670000       0.73730000
    47  C          0.73433000       0.54203000       0.28131160
    48  C          0.26567000       0.45797000       0.71868840
    49  H          0.83660000       0.56090000       0.29530000
    50  H          0.16340000       0.43910000       0.70470000
    51  C          0.68253000       0.64853000       0.27979160
    52  C          0.31747000       0.35147000       0.72020840
    53  H          0.74990000       0.74090000       0.29490000
    54  H          0.25010000       0.25910000       0.70510000
    55  C          0.53443000       0.62413000       0.25680160
    56  C          0.46557000       0.37587000       0.74319840
    57  H          0.50050000       0.69900000       0.25350000
    58  H          0.49950000       0.30100000       0.74650000
    59  C          0.80283000       0.16483000       0.15788170
    60  C          0.19717000       0.83517000       0.84211830
    61  C          0.75043000       0.08913000       0.22783180
    62  C          0.24957000       0.91087000       0.77216820
    63  C          0.59764000       0.03923000       0.22553000
    64  C          0.40236000       0.96077000       0.77447000
    65  H          0.55560000      -0.01350000       0.27220000
    66  H          0.44440000       0.01350000       0.72780000
    67  C          0.50934000       0.06614000       0.15653000
    68  C          0.49066000       0.93386000       0.84347000
    69  H          0.40610000       0.03100000       0.15570000
    70  H          0.59390000       0.96900000       0.84430000
    71  C          0.56514000       0.14174000       0.08903000
    72  C          0.43486000       0.85826000       0.91097000
    73  H          0.50100000       0.15990000       0.04220000
    74  H          0.49900000       0.84010000       0.95780000
    75  C          0.71443000       0.19263000       0.08774190
    76  C          0.28557000       0.80737000       0.91225810
    77  C          0.18693000       0.66653000       0.36387170
    78  C          0.81307000       0.33347000       0.63612830
    79  C          0.19163000       0.62463000       0.44952170
    80  C          0.80837000       0.37537000       0.55047830
    81  C          0.12223000       0.67513000       0.50541190
    82  C          0.87777000       0.32487000       0.49458810
    83  H          0.12060000       0.64690000       0.56450000
    84  H          0.87940000       0.35310000       0.43550000
    85  C          0.05543000       0.76603000       0.47612000
    86  C          0.94457000       0.23397000       0.52388000
    87  H          0.00830000       0.80010000       0.51530000
    88  H         -0.00830000       0.19990000       0.48470000
    89  C          0.05603000       0.80803000       0.39122000
    90  C          0.94397000       0.19197000       0.60878000
    91  H          0.01070000       0.87200000       0.37260000
    92  H         -0.01070000       0.12800000       0.62740000
    93  C          0.12173000       0.75853000       0.33190170
    94  C          0.87827000       0.24147000       0.66809830
    95  C          0.85304000       0.06184000       0.30021190
    96  C          0.14696000       0.93816000       0.69978810
    97  H          0.89940000       0.00360000       0.27630000
    98  H          0.10060000      -0.00360000       0.72370000
    99  H          0.79850000       0.01380000       0.34660000
   100  H          0.20150000      -0.01380000       0.65340000
   101  H          0.92880000       0.15010000       0.32540000
   102  H          0.07120000       0.84990000       0.67460000
   103  C          0.78004000       0.27494000       0.01322000
   104  C          0.21996000       0.72506000       0.98678000
   105  H          0.84020000       0.37050000       0.03560000
   106  H          0.15980000       0.62950000       0.96440000
   107  H          0.70120000       0.27540000       0.96630000
   108  H          0.29880000       0.72460000       0.03370000
   109  H          0.84140000       0.23230000       0.98920000
   110  H          0.15860000       0.76770000       0.01080000
   111  C          0.26773000       0.52593000       0.47842000
   112  C          0.73227000       0.47407000       0.52158000
   113  H          0.26150000       0.50780000       0.54090000
   114  H          0.73850000       0.49220000       0.45910000
   115  H          0.37100000       0.56730000       0.47090000
   116  H          0.62900000       0.43270000       0.52910000
   117  H          0.22000000       0.43830000       0.44220000
   118  H          0.78000000       0.56170000       0.55780000
   119  C          0.11914000       0.79834000       0.23778190
   120  C          0.88086000       0.20166000       0.76221810
   121  H          0.21930000       0.83280000       0.22410000
   122  H          0.78070000       0.16720000       0.77590000
   123  H          0.07830000       0.87130000       0.22940000
   124  H          0.92170000       0.12870000       0.77060000
   125  H          0.05810000       0.71700000       0.19810000
   126  H          0.94190000       0.28300000       0.80190000
   127  C          0.45223000       0.04053000       0.50743190
   128  C          0.54777000       0.95947000       0.49256810
   129  H          0.36050000       0.97590000       0.52530000
   130  H          0.63950000       0.02410000       0.47470000
   131  H          0.50410000       0.11070000       0.55720000
   132  H          0.49590000       0.88930000       0.44280000
   133  C          0.41273000       0.11343000       0.42772000
   134  C          0.58727000       0.88657000       0.57228000
   135  H          0.36490000       0.04420000       0.37700000
   136  H          0.63510000       0.95580000       0.62300000
   137  H          0.50400000       0.18180000       0.41160000
   138  H          0.49600000       0.81820000       0.58840000
   139  C          0.31064000       0.18824000       0.44323000
   140  C          0.68936000       0.81176000       0.55677000
   141  H          0.21920000       0.12100000       0.45810000
   142  H          0.78080000       0.87900000       0.54190000
   143  H          0.28870000       0.23270000       0.38920000
   144  H          0.71130000       0.76730000       0.61080000
   145  H          0.35830000       0.25900000       0.49210000
   146  H          0.64170000       0.74100000       0.50790000
