data_NOGYOZ
_symmetry_space_group_name_H-M    'P1'
_symmetry_Int_Tables_number       1
loop_
_symmetry_equiv_pos_site_id
_symmetry_equiv_pos_as_xyz
1 x,y,z
_cell_length_a                   7.50595
_cell_length_b                   12.97639
_cell_length_c                   30.4072
_cell_angle_alpha                90.0
_cell_angle_beta                 90.0
_cell_angle_gamma                90.0
loop_
_atom_site_label
_atom_site_type_symbol
_atom_site_fract_x
_atom_site_fract_y
_atom_site_fract_z
     1  I          0.10672300       0.66600200       0.60472200
     2  I          0.39327700       0.33399800       0.10472200
     3  I          0.60672300       0.83399800       0.39527800
     4  I          0.89327700       0.16600200       0.89527800
     5  I          0.89327700       0.33399800       0.39527800
     6  I          0.60672300       0.66600200       0.89527800
     7  I          0.39327700       0.16600200       0.60472200
     8  I          0.10672300       0.83399800       0.10472200
     9  F          0.01203000       0.11934160       0.70605700
    10  F          0.48797000       0.88065840       0.20605700
    11  F          0.51203000       0.38065840       0.29394300
    12  F         -0.01203000       0.61934160       0.79394300
    13  F         -0.01203000       0.88065840       0.29394300
    14  F          0.51203000       0.11934160       0.79394300
    15  F          0.48797000       0.61934160       0.70605700
    16  F          0.01203000       0.38065840       0.20605700
    17  C          0.10705000       0.54783000       0.64922110
    18  C          0.39295000       0.45217000       0.14922110
    19  C          0.60705000       0.95217000       0.35077890
    20  C          0.89295000       0.04783000       0.85077890
    21  C          0.89295000       0.45217000       0.35077890
    22  C          0.60705000       0.54783000       0.85077890
    23  C          0.39295000       0.04783000       0.64922110
    24  C          0.10705000       0.95217000       0.14922110
    25  F          0.15673000       0.34216160       0.82150600
    26  F          0.34327000       0.65783840       0.32150600
    27  F          0.65673000       0.15783840       0.17849400
    28  F          0.84327000       0.84216160       0.67849400
    29  F          0.84327000       0.65783840       0.17849400
    30  F          0.65673000       0.34216160       0.67849400
    31  F          0.34327000       0.84216160       0.82150600
    32  F          0.15673000       0.15783840       0.32150600
    33  C          0.10895000       0.47743000       0.67461110
    34  C          0.39105000       0.52257000       0.17461110
    35  C          0.60895000       0.02257000       0.32538890
    36  C          0.89105000       0.97743000       0.82538890
    37  C          0.89105000       0.52257000       0.32538890
    38  C          0.60895000       0.47743000       0.82538890
    39  C          0.39105000       0.97743000       0.67461110
    40  C          0.10895000       0.02257000       0.17461110
    41  C          0.10644000       0.39253000       0.70504110
    42  C          0.39356000       0.60747000       0.20504110
    43  C          0.60644000       0.10747000       0.29495890
    44  C          0.89356000       0.89253000       0.79495890
    45  C          0.89356000       0.60747000       0.29495890
    46  C          0.60644000       0.39253000       0.79495890
    47  C          0.39356000       0.89253000       0.70504110
    48  C          0.10644000       0.10747000       0.20504110
    49  C          0.06494000       0.29323000       0.69014110
    50  C          0.43506000       0.70677000       0.19014110
    51  C          0.56494000       0.20677000       0.30985890
    52  C          0.93506000       0.79323000       0.80985890
    53  C          0.93506000       0.70677000       0.30985890
    54  C          0.56494000       0.29323000       0.80985890
    55  C          0.43506000       0.79323000       0.69014110
    56  C          0.06494000       0.20677000       0.19014110
    57  H          0.04400000       0.28030000       0.65980000
    58  H          0.45600000       0.71970000       0.15980000
    59  H          0.54400000       0.21970000       0.34020000
    60  H          0.95600000       0.78030000       0.84020000
    61  H          0.95600000       0.71970000       0.34020000
    62  H          0.54400000       0.28030000       0.84020000
    63  H          0.45600000       0.78030000       0.65980000
    64  H          0.04400000       0.21970000       0.15980000
    65  C          0.05535000       0.21523000       0.72058110
    66  C          0.44465000       0.78477000       0.22058110
    67  C          0.55535000       0.28477000       0.27941890
    68  C          0.94465000       0.71523000       0.77941890
    69  C          0.94465000       0.78477000       0.27941890
    70  C          0.55535000       0.21523000       0.77941890
    71  C          0.44465000       0.71523000       0.72058110
    72  C          0.05535000       0.28477000       0.22058110
    73  C          0.08415000       0.22773000       0.76486110
    74  C          0.41585000       0.77227000       0.26486110
    75  C          0.58415000       0.27227000       0.23513890
    76  C          0.91585000       0.72773000       0.73513890
    77  C          0.91585000       0.77227000       0.23513890
    78  C          0.58415000       0.22773000       0.73513890
    79  C          0.41585000       0.72773000       0.76486110
    80  C          0.08415000       0.27227000       0.26486110
    81  H          0.07510000       0.17210000       0.78510000
    82  H          0.42490000       0.82790000       0.28510000
    83  H          0.57510000       0.32790000       0.21490000
    84  H          0.92490000       0.67210000       0.71490000
    85  H          0.92490000       0.82790000       0.21490000
    86  H          0.57510000       0.17210000       0.71490000
    87  H          0.42490000       0.67210000       0.78510000
    88  H          0.07510000       0.32790000       0.28510000
    89  C          0.12705000       0.32623000       0.77811100
    90  C          0.37295000       0.67377000       0.27811100
    91  C          0.62705000       0.17377000       0.22188900
    92  C          0.87295000       0.82623000       0.72188900
    93  C          0.87295000       0.67377000       0.22188900
    94  C          0.62705000       0.32623000       0.72188900
    95  C          0.37295000       0.82623000       0.77811100
    96  C          0.12705000       0.17377000       0.27811100
    97  C          0.14044000       0.40862000       0.74975110
    98  C          0.35956000       0.59138000       0.24975110
    99  C          0.64044000       0.09138000       0.25024890
   100  C          0.85956000       0.90862000       0.75024890
   101  C          0.85956000       0.59138000       0.25024890
   102  C          0.64044000       0.40862000       0.75024890
   103  C          0.35956000       0.90862000       0.74975110
   104  C          0.14044000       0.09138000       0.24975110
   105  H          0.17200000       0.47500000       0.76030000
   106  H          0.32800000       0.52500000       0.26030000
   107  H          0.67200000       0.02500000       0.23970000
   108  H          0.82800000       0.97500000       0.73970000
   109  H          0.82800000       0.52500000       0.23970000
   110  H          0.67200000       0.47500000       0.73970000
   111  H          0.32800000       0.97500000       0.76030000
   112  H          0.17200000       0.02500000       0.26030000
   113  N          0.11854000       0.80982190       0.54155900
   114  N          0.38146000       0.19017810       0.04155900
   115  N          0.61854000       0.69017810       0.45844100
   116  N          0.88146000       0.30982190       0.95844100
   117  N          0.88146000       0.19017810       0.45844100
   118  N          0.61854000       0.80982190       0.95844100
   119  N          0.38146000       0.30982190       0.54155900
   120  N          0.11854000       0.69017810       0.04155900
   121  N          0.19464000       0.98142000       0.42618900
   122  N          0.30536000       0.01858000       0.92618900
   123  N          0.69464000       0.51858000       0.57381100
   124  N          0.80536000       0.48142000       0.07381100
   125  N          0.80536000       0.01858000       0.57381100
   126  N          0.69464000       0.98142000       0.07381100
   127  N          0.30536000       0.48142000       0.42618900
   128  N          0.19464000       0.51858000       0.92618900
   129  C          0.05634000       0.77822000       0.50236110
   130  C          0.44366000       0.22178000       0.00236110
   131  C          0.55634000       0.72178000       0.49763890
   132  C          0.94366000       0.27822000      -0.00236110
   133  C          0.94366000       0.22178000       0.49763890
   134  C          0.55634000       0.77822000      -0.00236110
   135  C          0.44366000       0.27822000       0.50236110
   136  C          0.05634000       0.72178000       0.00236110
   137  H         -0.00580000       0.71450000       0.50130000
   138  H          0.50580000       0.28550000       0.00130000
   139  H          0.49420000       0.78550000       0.49870000
   140  H          0.00580000       0.21450000      -0.00130000
   141  H          0.00580000       0.28550000       0.49870000
   142  H          0.49420000       0.71450000      -0.00130000
   143  H          0.50580000       0.21450000       0.50130000
   144  H         -0.00580000       0.78550000       0.00130000
   145  C          0.07644000       0.83192000       0.46384100
   146  C          0.42356000       0.16808000       0.96384100
   147  C          0.57644000       0.66808000       0.53615900
   148  C          0.92356000       0.33192000       0.03615900
   149  C          0.92356000       0.16808000       0.53615900
   150  C          0.57644000       0.83192000       0.03615900
   151  C          0.42356000       0.33192000       0.46384100
   152  C          0.07644000       0.66808000       0.96384100
   153  H          0.02790000       0.80530000       0.43730000
   154  H          0.47210000       0.19470000       0.93730000
   155  H          0.52790000       0.69470000       0.56270000
   156  H          0.97210000       0.30530000       0.06270000
   157  H          0.97210000       0.19470000       0.56270000
   158  H          0.52790000       0.80530000       0.06270000
   159  H          0.47210000       0.30530000       0.43730000
   160  H          0.02790000       0.69470000       0.93730000
   161  C          0.16924000       0.92672000       0.46353100
   162  C          0.33076000       0.07328000       0.96353100
   163  C          0.66924000       0.57328000       0.53646900
   164  C          0.83076000       0.42672000       0.03646900
   165  C          0.83076000       0.07328000       0.53646900
   166  C          0.66924000       0.92672000       0.03646900
   167  C          0.33076000       0.42672000       0.46353100
   168  C          0.16924000       0.57328000       0.96353100
   169  C          0.23284000       0.95972000       0.50507100
   170  C          0.26716000       0.04028000       0.00507100
   171  C          0.73284000       0.54028000       0.49492900
   172  C          0.76716000       0.45972000       0.99492900
   173  C          0.76716000       0.04028000       0.49492900
   174  C          0.73284000       0.95972000       0.99492900
   175  C          0.26716000       0.45972000       0.50507100
   176  C          0.23284000       0.54028000       0.00507100
   177  H          0.29540000       0.02300000       0.50760000
   178  H          0.20460000       0.97700000       0.00760000
   179  H          0.79540000       0.47700000       0.49240000
   180  H          0.70460000       0.52300000       0.99240000
   181  H          0.70460000       0.97700000       0.49240000
   182  H          0.79540000       0.02300000       0.99240000
   183  H          0.20460000       0.52300000       0.50760000
   184  H          0.29540000       0.47700000       0.00760000
   185  C          0.20424000       0.90052000       0.54153110
   186  C          0.29576000       0.09948000       0.04153110
   187  C          0.70424000       0.59948000       0.45846890
   188  C          0.79576000       0.40052000       0.95846890
   189  C          0.79576000       0.09948000       0.45846890
   190  C          0.70424000       0.90052000       0.95846890
   191  C          0.29576000       0.40052000       0.54153110
   192  C          0.20424000       0.59948000       0.04153110
   193  H          0.24820000       0.92530000       0.56880000
   194  H          0.25180000       0.07470000       0.06880000
   195  H          0.74820000       0.57470000       0.43120000
   196  H          0.75180000       0.42530000       0.93120000
   197  H          0.75180000       0.07470000       0.43120000
   198  H          0.74820000       0.92530000       0.93120000
   199  H          0.25180000       0.42530000       0.56880000
   200  H          0.24820000       0.57470000       0.06880000
   201  C          0.12625000       0.94423000       0.38421100
   202  C          0.37375000       0.05577000       0.88421100
   203  C          0.62625000       0.55577000       0.61578900
   204  C          0.87375000       0.44423000       0.11578900
   205  C          0.87375000       0.05577000       0.61578900
   206  C          0.62625000       0.94423000       0.11578900
   207  C          0.37375000       0.44423000       0.38421100
   208  C          0.12625000       0.55577000       0.88421100
   209  H         -0.00430000       0.94320000       0.38510000
   210  H          0.50430000       0.05680000       0.88510000
   211  H          0.49570000       0.55680000       0.61490000
   212  H          0.00430000       0.44320000       0.11490000
   213  H          0.00430000       0.05680000       0.61490000
   214  H          0.49570000       0.94320000       0.11490000
   215  H          0.50430000       0.44320000       0.38510000
   216  H         -0.00430000       0.55680000       0.88510000
   217  H          0.17080000       0.87440000       0.37870000
   218  H          0.32920000       0.12560000       0.87870000
   219  H          0.67080000       0.62560000       0.62130000
   220  H          0.82920000       0.37440000       0.12130000
   221  H          0.82920000       0.12560000       0.62130000
   222  H          0.67080000       0.87440000       0.12130000
   223  H          0.32920000       0.37440000       0.37870000
   224  H          0.17080000       0.62560000       0.87870000
   225  H          0.16600000      -0.00990000       0.36060000
   226  H          0.33400000       0.00990000       0.86060000
   227  H          0.66600000       0.50990000       0.63940000
   228  H          0.83400000       0.49010000       0.13940000
   229  H          0.83400000       0.00990000       0.63940000
   230  H          0.66600000      -0.00990000       0.13940000
   231  H          0.33400000       0.49010000       0.36060000
   232  H          0.16600000       0.50990000       0.86060000
   233  C          0.28814000       0.08032000       0.42693110
   234  C          0.21186000       0.91968000       0.92693110
   235  C          0.78814000       0.41968000       0.57306890
   236  C          0.71186000       0.58032000       0.07306890
   237  C          0.71186000       0.91968000       0.57306890
   238  C          0.78814000       0.08032000       0.07306890
   239  C          0.21186000       0.58032000       0.42693110
   240  C          0.28814000       0.41968000       0.92693110
   241  H          0.40690000       0.07090000       0.43970000
   242  H          0.09310000       0.92910000       0.93970000
   243  H          0.90690000       0.42910000       0.56030000
   244  H          0.59310000       0.57090000       0.06030000
   245  H          0.59310000       0.92910000       0.56030000
   246  H          0.90690000       0.07090000       0.06030000
   247  H          0.09310000       0.57090000       0.43970000
   248  H          0.40690000       0.42910000       0.93970000
   249  H          0.22050000       0.12960000       0.44470000
   250  H          0.27950000       0.87040000       0.94470000
   251  H          0.72050000       0.37040000       0.55530000
   252  H          0.77950000       0.62960000       0.05530000
   253  H          0.77950000       0.87040000       0.55530000
   254  H          0.72050000       0.12960000       0.05530000
   255  H          0.27950000       0.62960000       0.44470000
   256  H          0.22050000       0.37040000       0.94470000
   257  H          0.29950000       0.10670000       0.39690000
   258  H          0.20050000       0.89330000       0.89690000
   259  H          0.79950000       0.39330000       0.60310000
   260  H          0.70050000       0.60670000       0.10310000
   261  H          0.70050000       0.89330000       0.60310000
   262  H          0.79950000       0.10670000       0.10310000
   263  H          0.20050000       0.60670000       0.39690000
   264  H          0.29950000       0.39330000       0.89690000
