data_NOLWUK
_symmetry_space_group_name_H-M    'P1'
_symmetry_Int_Tables_number       1
loop_
_symmetry_equiv_pos_site_id
_symmetry_equiv_pos_as_xyz
1 x,y,z
_cell_length_a                   4.67523
_cell_length_b                   11.00686
_cell_length_c                   12.49967
_cell_angle_alpha                105.6252
_cell_angle_beta                 93.5042
_cell_angle_gamma                96.9912
loop_
_atom_site_label
_atom_site_type_symbol
_atom_site_fract_x
_atom_site_fract_y
_atom_site_fract_z
     1  C          0.34954000       0.81241160       0.55615140
     2  C          0.65046000       0.18758840       0.44384860
     3  C          0.49354000       0.76788170       0.28867150
     4  C          0.50646000       0.23211830       0.71132850
     5  C          0.59074000       0.71193160       0.37509140
     6  C          0.40926000       0.28806840       0.62490860
     7  C          0.52824000       0.72978160       0.48785140
     8  C          0.47176000       0.27021840       0.51214860
     9  N          0.30913000       0.81629140       0.66131120
    10  N          0.69087000       0.18370860       0.33868880
    11  H          0.38307400       0.77147100       0.69953600
    12  H          0.61692600       0.22852900       0.30046400
    13  N          0.13284000       0.90234150       0.69681130
    14  N          0.86716000       0.09765850       0.30318870
    15  N          0.06853000       0.94862150       0.61465130
    16  N          0.93147000       0.05137850       0.38534870
    17  N          0.20273000       0.89351140       0.52425120
    18  N          0.79727000       0.10648860       0.47574880
    19  N          0.32153000       0.85746150       0.29815120
    20  N          0.67847000       0.14253850       0.70184880
    21  H          0.24685700       0.89329700       0.35777200
    22  H          0.75314300       0.10670300       0.64222800
    23  N          0.28384000       0.88251180       0.19971140
    24  N          0.71616000       0.11748820       0.80028860
    25  N          0.43095000       0.80852000       0.13261150
    26  N          0.56905000       0.19148000       0.86738850
    27  N          0.56454000       0.73523170       0.18559140
    28  N          0.43546000       0.26476830       0.81440860
    29  N          0.77103000       0.62572140       0.35207120
    30  N          0.22897000       0.37427860       0.64792880
    31  N          0.66663000       0.65387130       0.53219120
    32  N          0.33337000       0.34612870       0.46780880
    33  N          0.80643000       0.59524140       0.44784120
    34  N          0.19357000       0.40475860       0.55215880
    35  N         -0.00687000       0.50865140       0.45251120
    36  N          0.00687000       0.49134860       0.54748880
    37  C          0.92296000       0.84282000       0.92865190
    38  C          0.07704000       0.15718000       0.07134810
    39  H          0.91104700       0.91422500       0.89908500
    40  H          0.08895300       0.08577500       0.10091500
    41  H          0.12004300       0.84332300       0.95544200
    42  H          0.87995700       0.15667700       0.04455800
    43  H          0.80325500       0.84866800      -0.01093400
    44  H          0.19674500       0.15133200       0.01093400
    45  C          0.82137000       0.59083000       0.90413000
    46  C          0.17863000       0.40917000       0.09587000
    47  H          0.70307900       0.61198100       0.96472700
    48  H          0.29692100       0.38801900       0.03527300
    49  H          0.01837800       0.59550300       0.93330200
    50  H         -0.01837800       0.40449700       0.06669800
    51  H          0.75273400       0.50589100       0.85816300
    52  H          0.24726600       0.49410900       0.14183700
    53  O          0.47703000       0.69972160       0.79986130
    54  O          0.52297000       0.30027840       0.20013870
    55  S          0.80249110       0.70018500       0.82284400
    56  S          0.19750890       0.29981500       0.17715600
