data_NOMYEU
_symmetry_space_group_name_H-M    'P1'
_symmetry_Int_Tables_number       1
loop_
_symmetry_equiv_pos_site_id
_symmetry_equiv_pos_as_xyz
1 x,y,z
_cell_length_a                   6.7801
_cell_length_b                   8.09708
_cell_length_c                   19.707016
_cell_angle_alpha                95.7328
_cell_angle_beta                 96.6079
_cell_angle_gamma                92.1516
loop_
_atom_site_label
_atom_site_type_symbol
_atom_site_fract_x
_atom_site_fract_y
_atom_site_fract_z
     1  C          0.56352000       0.80298000       0.84923200
     2  C          0.43648000       0.19702000       0.15076800
     3  C          0.57722000       0.69748000       0.90063200
     4  C          0.42278000       0.30252000       0.09936800
     5  H          0.53790000       0.58550000       0.89150000
     6  H          0.46210000       0.41450000       0.10850000
     7  C          0.65152000       0.76548000       0.96593200
     8  C          0.34848000       0.23452000       0.03406800
     9  C          0.71412000       0.93368000       0.98126200
    10  C          0.28588000       0.06632000       0.01873800
    11  C          0.69912000       0.03402000       0.92755200
    12  C          0.30088000       0.96598000       0.07244800
    13  H          0.74040000       0.14570000       0.93620000
    14  H          0.25960000       0.85430000       0.06380000
    15  C          0.62392000       0.97008000       0.86182100
    16  C          0.37608000       0.02992000       0.13817900
    17  H          0.61380000       0.03810000       0.82640000
    18  H          0.38620000       0.96190000       0.17360000
    19  C          0.91662000       0.20562000       0.12528800
    20  C          0.08338000       0.79438000       0.87471200
    21  C          0.93272000       0.11352000       0.18247800
    22  C          0.06728000       0.88648000       0.81752200
    23  H          0.89390000       0.00110000       0.17670000
    24  H          0.10610000      -0.00110000       0.82330000
    25  C          0.00462000       0.18742000       0.24607800
    26  C         -0.00462000       0.81258000       0.75392200
    27  H          0.01050000       0.12450000       0.28320000
    28  H         -0.01050000       0.87550000       0.71680000
    29  C          0.07142000       0.35892000       0.25756800
    30  C          0.92858000       0.64108000       0.74243200
    31  C          0.05562000       0.44762000       0.19832800
    32  C          0.94438000       0.55238000       0.80167200
    33  C         -0.02258000       0.37162000       0.13420800
    34  C          0.02258000       0.62838000       0.86579200
    35  H          0.96590000       0.43340000       0.09670000
    36  H          0.03410000       0.56660000       0.90330000
    37  C          0.95063000       0.36633000       0.41120900
    38  C          0.04937000       0.63367000       0.58879100
    39  H          0.92780000       0.48300000       0.42220000
    40  H          0.07220000       0.51700000       0.57780000
    41  H          0.84620000       0.32040000       0.37580000
    42  H          0.15380000       0.67960000       0.62420000
    43  C          0.15103000       0.35022000       0.38407900
    44  C          0.84897000       0.64978000       0.61592100
    45  H          0.17580000       0.23210000       0.37490000
    46  H          0.82420000       0.76790000       0.62510000
    47  C          0.32343000       0.43463000       0.43313100
    48  C          0.67657000       0.56537000       0.56686900
    49  H          0.31800000       0.39900000       0.47850000
    50  H          0.68200000       0.60100000       0.52150000
    51  H          0.44790000       0.40090000       0.41760000
    52  H          0.55210000       0.59910000       0.58240000
    53  N          0.48642000       0.73375810       0.77912300
    54  N          0.51358000       0.26624190       0.22087700
    55  N          0.66982000       0.65096810       0.01946700
    56  N          0.33018000       0.34903190       0.98053300
    57  N          0.79718190      -0.01120170       0.04986700
    58  N          0.20281810       0.01120170       0.95013300
    59  N          0.83865190       0.14342180       0.05812700
    60  N          0.16134810       0.85657820       0.94187300
    61  N          0.14712000       0.42742000       0.32031700
    62  N          0.85288000       0.57258000       0.67968300
    63  N          0.12092000       0.62100190       0.20173700
    64  N          0.87908000       0.37899810       0.79826300
    65  O          0.43270180       0.58589840       0.76937400
    66  O          0.56729820       0.41410160       0.23062600
    67  O          0.48047180       0.82649840       0.73331400
    68  O          0.51952820       0.17350160       0.26668600
    69  O          0.61733180       0.69404840       0.07572600
    70  O          0.38266820       0.30595160       0.92427400
    71  O          0.73335180       0.51410840       0.00320600
    72  O          0.26664820       0.48589160      -0.00320600
    73  O          0.94193000       0.28202000       0.47098700
    74  O          0.05807000       0.71798000       0.52901300
    75  O          0.31752000       0.61064180       0.43720700
    76  O          0.68248000       0.38935820       0.56279300
    77  O          0.19082000       0.69697160       0.25747600
    78  O          0.80918000       0.30302840       0.74252400
    79  O          0.10352000       0.68971170       0.14878700
    80  O          0.89648000       0.31028830       0.85121300
    81  H          0.18030000       0.52930000       0.32331000
    82  H          0.81970000       0.47070000       0.67669000
    83  H          0.92640000       0.17140000       0.45571400
    84  H          0.07360000       0.82860000       0.54428600
    85  H          0.23540000       0.65440000       0.46711500
    86  H          0.76460000       0.34560000       0.53288500
    87  C          0.70744000       0.77047000       0.31866140
    88  C          0.29256000       0.22953000       0.68133860
    89  H          0.83620000       0.74600000       0.30570000
    90  H          0.16380000       0.25400000       0.69430000
    91  H          0.62410000       0.80150000       0.27970000
    92  H          0.37590000       0.19850000       0.72030000
    93  H          0.64870000       0.67390000       0.33450000
    94  H          0.35130000       0.32610000       0.66550000
    95  C          0.72794000       0.90977000       0.37456110
    96  C          0.27206000       0.09023000       0.62543890
    97  C          0.54024000       0.96347000       0.40168130
    98  C          0.45976000       0.03653000       0.59831870
    99  H          0.57100000       0.05330000       0.43750000
   100  H          0.42900000       0.94670000       0.56250000
   101  H          0.47790000       0.87170000       0.41980000
   102  H          0.52210000       0.12830000       0.58020000
   103  H          0.45150000      -0.00020000       0.36520000
   104  H          0.54850000       0.00020000       0.63480000
   105  O          0.89003000       0.97708000       0.39564800
   106  O          0.10997000       0.02292000       0.60435200
