data_NOQMAL
_symmetry_space_group_name_H-M    'P1'
_symmetry_Int_Tables_number       1
loop_
_symmetry_equiv_pos_site_id
_symmetry_equiv_pos_as_xyz
1 x,y,z
_cell_length_a                   5.17224
_cell_length_b                   11.41029
_cell_length_c                   12.651611
_cell_angle_alpha                76.4014
_cell_angle_beta                 85.9754
_cell_angle_gamma                80.3714
loop_
_atom_site_label
_atom_site_type_symbol
_atom_site_fract_x
_atom_site_fract_y
_atom_site_fract_z
     1  Br         0.50236800       0.88784300       0.74453300
     2  Br         0.49763200       0.11215700       0.25546700
     3  N          0.12065000       0.68162000       0.92072000
     4  N          0.87935000       0.31838000       0.07928000
     5  N          0.91966000       0.87732000       0.91792000
     6  N          0.08034000       0.12268000       0.08208000
     7  H          0.03380900       0.88189100       0.96247300
     8  H          0.96619100       0.11810900       0.03752700
     9  H          0.79990700       0.93873900       0.89582600
    10  H          0.20009300       0.06126100       0.10417400
    11  C          0.92826000       0.77533000       0.88332000
    12  C          0.07174000       0.22467000       0.11668000
    13  C          0.75696000       0.75643000       0.80943000
    14  C          0.24304000       0.24357000       0.19057000
    15  C          0.14377000       0.57253000       0.89183000
    16  C          0.85623000       0.42747000       0.10817000
    17  H          0.28085500       0.51105600       0.91844600
    18  H          0.71914500       0.48894400       0.08155400
    19  C          0.77427000       0.64603000       0.78243000
    20  C          0.22573000       0.35397000       0.21757000
    21  H          0.65476700       0.63420400       0.73574800
    22  H          0.34523300       0.36579600       0.26425200
    23  C          0.97177000       0.55153000       0.82533000
    24  C          0.02823000       0.44847000       0.17467000
    25  H         -0.01479400       0.47555700       0.80860800
    26  H          0.01479400       0.52444300       0.19139200
    27  O          0.66355000       0.61712000       0.39222190
    28  O          0.33645000       0.38288000       0.60777810
    29  O          0.45665000       0.68262000       0.06142000
    30  O          0.54335000       0.31738000       0.93858000
    31  H          0.34144300       0.69532300       0.01693100
    32  H          0.65855700       0.30467700       0.98306900
    33  O          0.30465000       0.87312000       0.07472000
    34  O          0.69535000       0.12688000       0.92528000
    35  O          0.37434000       0.57122000       0.29532000
    36  O          0.62566000       0.42878000       0.70468000
    37  C          0.43124000       0.77043000       0.10833000
    38  C          0.56876000       0.22957000       0.89167000
    39  C          0.73704000       0.81893000       0.23013000
    40  C          0.26296000       0.18107000       0.76987000
    41  H          0.76667100       0.88565300       0.17492200
    42  H          0.23332900       0.11434700       0.82507800
    43  C          0.57264000       0.74633000       0.21313000
    44  C          0.42736000       0.25367000       0.78687000
    45  C          0.86804000       0.79683000       0.33033000
    46  C          0.13196000       0.20317000       0.66967000
    47  C          0.52603000       0.63993000       0.29873000
    48  C          0.47397000       0.36007000       0.70127000
    49  C          0.03507000       0.87083000       0.35453000
    50  C          0.96493000       0.12917000       0.64547000
    51  H          0.06644000       0.94032700       0.30302200
    52  H          0.93356000       0.05967300       0.69697800
    53  C          0.82614000       0.69413000       0.40983000
    54  C          0.17386000       0.30587000       0.59017000
    55  C          0.94442000       0.66374000       0.50913000
    56  C          0.05558000       0.33626000       0.49087000
    57  H          0.91381000       0.59433000       0.56084800
    58  H          0.08619000       0.40567000       0.43915200
    59  C          0.10949000       0.73844000       0.53003000
    60  C          0.89051000       0.26156000       0.46997000
    61  H          0.19185100       0.71894600       0.59631200
    62  H          0.80814900       0.28105400       0.40368800
    63  C          0.15318000       0.84244000       0.45293000
    64  C          0.84682000       0.15756000       0.54707000
    65  H          0.26259400       0.89287000       0.46802700
    66  H          0.73740600       0.10713000       0.53197300
