data_NORPAP
_symmetry_space_group_name_H-M    'P1'
_symmetry_Int_Tables_number       1
loop_
_symmetry_equiv_pos_site_id
_symmetry_equiv_pos_as_xyz
1 x,y,z
_cell_length_a                   11.59552
_cell_length_b                   7.266201
_cell_length_c                   28.88024
_cell_angle_alpha                90.0
_cell_angle_beta                 91.43101
_cell_angle_gamma                90.0
loop_
_atom_site_label
_atom_site_type_symbol
_atom_site_fract_x
_atom_site_fract_y
_atom_site_fract_z
     1  Cl         0.86231500       0.50220700       0.44080200
     2  Cl         0.63768500       0.00220700       0.05919800
     3  Cl         0.13768500       0.49779300       0.55919800
     4  Cl         0.36231500      -0.00220700       0.94080200
     5  O          0.72954110       0.49229180       0.35162400
     6  O          0.77045890      -0.00770820       0.14837600
     7  O          0.27045890       0.50770820       0.64837600
     8  O          0.22954110       0.00770820       0.85162400
     9  N          0.66982130       0.87032000       0.21999500
    10  N          0.83017870       0.37032000       0.28000500
    11  N          0.33017870       0.12968000       0.78000500
    12  N          0.16982130       0.62968000       0.71999500
    13  N          0.50170130       0.71872000       0.24343500
    14  N         -0.00170130       0.21872000       0.25656500
    15  N          0.49829870       0.28128000       0.75656500
    16  N          0.00170130       0.78128000       0.74343500
    17  N          0.71627130       0.87562000       0.26325500
    18  N          0.78372870       0.37562000       0.23674500
    19  N          0.28372870       0.12438000       0.73674500
    20  N          0.21627130       0.62438000       0.76325500
    21  N          0.52835160       0.79053000       0.16694600
    22  N          0.97164840       0.29053000       0.33305400
    23  N          0.47164840       0.20947000       0.83305400
    24  N          0.02835160       0.70947000       0.66694600
    25  N          0.48292150       0.65473000       0.32012600
    26  N          0.01707850       0.15473000       0.17987400
    27  N          0.51707850       0.34527000       0.67987400
    28  N          0.98292150       0.84527000       0.82012600
    29  C          0.74807140       0.65913000       0.36784600
    30  C          0.75192860       0.15913000       0.13215400
    31  C          0.25192860       0.34087000       0.63215400
    32  C          0.24807140       0.84087000       0.86784600
    33  C          0.56686150       0.79243000       0.21045600
    34  C          0.93313850       0.29243000       0.28954400
    35  C          0.43313850       0.20757000       0.78954400
    36  C          0.06686150       0.70757000       0.71045600
    37  C          0.71083150       0.81863000       0.34372600
    38  C          0.78916850       0.31863000       0.15627400
    39  C          0.28916850       0.18137000       0.65627400
    40  C          0.21083150       0.68137000       0.84372600
    41  C          0.65829150       0.80183000       0.29665600
    42  C          0.84170850       0.30183000       0.20334400
    43  C          0.34170850       0.19817000       0.70334400
    44  C          0.15829150       0.69817000       0.79665600
    45  C          0.54541150       0.72043000       0.28633600
    46  C          0.95458850       0.22043000       0.21366400
    47  C          0.45458850       0.27957000       0.71366400
    48  C          0.04541150       0.77957000       0.78633600
    49  C          0.73161170      -0.00567000       0.36132700
    50  C          0.76838830       0.49433000       0.13867300
    51  C          0.26838830       0.00567000       0.63867300
    52  C          0.23161170       0.50567000       0.86132700
    53  H          0.70834700       0.08786000       0.34609300
    54  H          0.79165300       0.58786000       0.15390700
    55  H          0.29165300       0.91214000       0.65390700
    56  H          0.20834700       0.41214000       0.84609300
    57  C          0.80946160       0.69173000       0.41007600
    58  C          0.69053840       0.19173000       0.08992400
    59  C          0.19053840       0.30827000       0.58992400
    60  C          0.30946160       0.80827000       0.91007600
    61  C          0.82993170       0.86613000       0.42734700
    62  C          0.67006830       0.36613000       0.07265300
    63  C          0.17006830       0.13387000       0.57265300
    64  C          0.32993170       0.63387000       0.92734700
    65  H          0.86733400       0.87987200       0.45279400
    66  H          0.63266600       0.37987200       0.04720600
    67  H          0.13266600       0.12012800       0.54720600
    68  H          0.36733400       0.62012800       0.95279400
    69  C          0.78958180       0.01813000       0.40323700
    70  C          0.71041820       0.51813000       0.09676300
    71  C          0.21041820      -0.01813000       0.59676300
    72  C          0.28958180       0.48187000       0.90323700
    73  H          0.80035700       0.12557100       0.41411900
    74  H          0.69964300       0.62557100       0.08588100
    75  H          0.19964300       0.87442900       0.58588100
    76  H          0.30035700       0.37442900       0.91411900
    77  H          0.47020000       0.71240000       0.15918000
    78  H          0.02980000       0.21240000       0.34082000
    79  H          0.52980000       0.28760000       0.84082000
    80  H          0.97020000       0.78760000       0.65918000
    81  H          0.56820000       0.83230000       0.14709000
    82  H          0.93180000       0.33230000       0.35291000
    83  H          0.43180000       0.16770000       0.85291000
    84  H          0.06820000       0.66770000       0.64709000
    85  H          0.41620000       0.61340000       0.31368000
    86  H          0.08380000       0.11340000       0.18632000
    87  H          0.58380000       0.38660000       0.68632000
    88  H          0.91620000       0.88660000       0.81368000
    89  H          0.51120000       0.64340000       0.34571000
    90  H         -0.01120000       0.14340000       0.15429000
    91  H          0.48880000       0.35660000       0.65429000
    92  H          0.01120000       0.85660000       0.84571000
    93  H          0.70820000       0.91840000       0.19591000
    94  H          0.79180000       0.41840000       0.30409000
    95  H          0.29180000       0.08160000       0.80409000
    96  H          0.20820000       0.58160000       0.69591000
    97  Cl         0.11239500       0.12761700       0.44122200
    98  Cl         0.38760500       0.62761700       0.05877800
    99  Cl         0.88760500       0.87238300       0.55877800
   100  Cl         0.61239500       0.37238300       0.94122200
   101  O          0.14521110       0.03772190       0.34261400
   102  O          0.35478890       0.53772190       0.15738600
   103  O          0.85478890       0.96227810       0.65738600
   104  O          0.64521110       0.46227810       0.84261400
   105  N          0.22379140       0.61312000       0.23235500
   106  N          0.27620860       0.11312000       0.26764500
   107  N          0.77620860       0.38688000       0.76764500
   108  N          0.72379140       0.88688000       0.73235500
   109  N          0.03598130       0.73352000       0.23184500
   110  N          0.46401870       0.23352000       0.26815500
   111  N          0.96401870       0.26648000       0.76815500
   112  N          0.53598130       0.76648000       0.73184500
   113  N          0.23831130       0.62432000       0.27903500
   114  N          0.26168870       0.12432000       0.22096500
   115  N          0.76168870       0.37568000       0.72096500
   116  N          0.73831130       0.87568000       0.77903500
   117  N          0.95559140       0.79413000       0.30100600
   118  N          0.54440860       0.29413000       0.19899400
   119  N          0.04440860       0.20587000       0.69899400
   120  N          0.45559140       0.70587000       0.80100600
   121  N          0.12736180       0.67093000       0.16366600
   122  N          0.37263820       0.17093000       0.33633400
   123  N          0.87263820       0.32907000       0.83633400
   124  N          0.62736180       0.82907000       0.66366600
   125  C          0.04614150       0.74263000       0.27751600
   126  C          0.45385850       0.24263000       0.22248400
   127  C          0.95385850       0.25737000       0.72248400
   128  C          0.54614150       0.75737000       0.77751600
   129  C          0.12861160       0.67363000       0.20930600
   130  C          0.37138840       0.17363000       0.29069400
   131  C          0.87138840       0.32637000       0.79069400
   132  C          0.62861160       0.82637000       0.70930600
   133  C          0.15004150       0.89473000       0.37034600
   134  C          0.34995850       0.39473000       0.12965400
   135  C          0.84995850       0.10527000       0.62965400
   136  C          0.65004150       0.60527000       0.87034600
   137  C          0.16397150       0.71323000       0.35314600
   138  C          0.33602850       0.21323000       0.14685400
   139  C          0.83602850       0.28677000       0.64685400
   140  C          0.66397150       0.78677000       0.85314600
   141  C          0.15330150       0.69123000       0.30221600
   142  C          0.34669850       0.19123000       0.19778400
   143  C          0.84669850       0.30877000       0.69778400
   144  C          0.65330150       0.80877000       0.80221600
   145  C          0.14211160       0.91073000       0.41885600
   146  C          0.35788840       0.41073000       0.08114400
   147  C          0.85788840       0.08927000       0.58114400
   148  C          0.64211160       0.58927000       0.91885600
   149  C          0.18087160       0.56483000       0.38290700
   150  C          0.31912840       0.06483000       0.11709300
   151  C          0.81912840       0.43517000       0.61709300
   152  C          0.68087160       0.93517000       0.88290700
   153  H          0.19206200       0.45804500       0.37188400
   154  H          0.30793800       0.95804500       0.12811600
   155  H          0.80793800       0.54195500       0.62811600
   156  H          0.69206200       0.04195500       0.87188400
   157  C          0.15787180       0.76263000       0.44826700
   158  C          0.34212820       0.26263000       0.05173300
   159  C          0.84212820       0.23737000       0.55173300
   160  C          0.65787180       0.73737000       0.94826700
   161  H          0.15421500       0.77753300       0.47737600
   162  H          0.34578500       0.27753300       0.02262400
   163  H          0.84578500       0.22246700       0.52262400
   164  H          0.65421500       0.72246700       0.97737600
   165  C          0.17959190       0.59003000       0.43039700
   166  C          0.32040810       0.09003000       0.06960300
   167  C          0.82040810       0.40997000       0.56960300
   168  C          0.67959190       0.90997000       0.93039700
   169  H          0.19212900       0.49955900       0.44849300
   170  H          0.30787100      -0.00044100       0.05150700
   171  H          0.80787100       0.50044100       0.55150700
   172  H          0.69212900       0.00044100       0.94849300
   173  H          0.07220000       0.71340000       0.14929000
   174  H          0.42780000       0.21340000       0.35071000
   175  H          0.92780000       0.28660000       0.85071000
   176  H          0.57220000       0.78660000       0.64929000
   177  H          0.18820000       0.63940000       0.15268000
   178  H          0.31180000       0.13940000       0.34732000
   179  H          0.81180000       0.36060000       0.84732000
   180  H          0.68820000       0.86060000       0.65268000
   181  H          0.89320000       0.83330000       0.28658000
   182  H          0.60680000       0.33330000       0.21342000
   183  H          0.10680000       0.16670000       0.71342000
   184  H          0.39320000       0.66670000       0.78658000
   185  H          0.96361900       0.80430000       0.33039000
   186  H          0.53638100       0.30430000       0.16961000
   187  H          0.03638100       0.19570000       0.66961000
   188  H          0.46361900       0.69570000       0.83039000
   189  H          0.27920000       0.58040000       0.21759000
   190  H          0.22080000       0.08040000       0.28241000
   191  H          0.72080000       0.41960000       0.78241000
   192  H          0.77920000       0.91960000       0.71759000
   193  O          0.54428120       0.34542000       0.39358500
   194  O          0.95571880       0.84542000       0.10641500
   195  O          0.45571880       0.65458000       0.60641500
   196  O          0.04428120       0.15458000       0.89358500
   197  H          0.56266100       0.29310900       0.41903600
   198  H          0.93733900       0.79310900       0.08096400
   199  H          0.43733900       0.70689100       0.58096400
   200  H          0.06266100       0.20689100       0.91903600
   201  H          0.60840400       0.37174400       0.38159700
   202  H          0.89159600       0.87174400       0.11840300
   203  H          0.39159600       0.62825600       0.61840300
   204  H          0.10840400       0.12825600       0.88159700
   205  O          0.41162130       0.80743000       0.51614500
   206  O          0.08837870       0.30743000       0.98385500
   207  O          0.58837870       0.19257000       0.48385500
   208  O          0.91162130       0.69257000       0.01614500
   209  C          0.48611190       0.77903000       0.48827700
   210  C          0.01388810       0.27903000       0.01172300
   211  C          0.51388810       0.22097000       0.51172300
   212  C          0.98611190       0.72097000       0.98827700
   213  C          0.60022000       0.70195000       0.50249100
   214  C          0.89978000       0.20195000      -0.00249100
   215  C          0.39978000       0.29805000       0.49750900
   216  C          0.10022000       0.79805000       0.00249100
   217  H          0.65100000       0.78600500       0.50154900
   218  H          0.84900000       0.28600500      -0.00154900
   219  H          0.34900000       0.21399500       0.49845100
   220  H          0.15100000       0.71399500       0.00154900
   221  H          0.61782400       0.61543500       0.48413700
   222  H          0.88217600       0.11543500       0.01586300
   223  H          0.38217600       0.38456500       0.51586300
   224  H          0.11782400       0.88456500       0.98413700
   225  H          0.59695800       0.66002600       0.52991400
   226  H          0.90304200       0.16002600       0.97008600
   227  H          0.40304200       0.33997400       0.47008600
   228  H          0.09695800       0.83997400       0.02991400
   229  C          0.46773000       0.81754000       0.43802800
   230  C          0.03227000       0.31754000       0.06197200
   231  C          0.53227000       0.18246000       0.56197200
   232  C          0.96773000       0.68246000       0.93802800
   233  H          0.45452700       0.71725200       0.42368600
   234  H          0.04547300       0.21725200       0.07631400
   235  H          0.54547300       0.28274800       0.57631400
   236  H          0.95452700       0.78274800       0.92368600
   237  H          0.52775000       0.86796600       0.42743300
   238  H          0.97225000       0.36796600       0.07256700
   239  H          0.47225000       0.13203400       0.57256700
   240  H          0.02775000       0.63203400       0.92743300
   241  H          0.41041900       0.88942100       0.43424000
   242  H          0.08958100       0.38942100       0.06576000
   243  H          0.58958100       0.11057900       0.56576000
   244  H          0.91041900       0.61057900       0.93424000
