data_NOTHAJ
_symmetry_space_group_name_H-M    'P1'
_symmetry_Int_Tables_number       1
loop_
_symmetry_equiv_pos_site_id
_symmetry_equiv_pos_as_xyz
1 x,y,z
_cell_length_a                   15.35598
_cell_length_b                   4.77142
_cell_length_c                   10.00425
_cell_angle_alpha                90.0
_cell_angle_beta                 106.3816
_cell_angle_gamma                90.0
loop_
_atom_site_label
_atom_site_type_symbol
_atom_site_fract_x
_atom_site_fract_y
_atom_site_fract_z
     1  N          0.86697600       0.25012000       0.47287100
     2  N          0.13302400       0.25012000       0.02712900
     3  N          0.13302400       0.74988000       0.52712900
     4  N          0.86697600       0.74988000       0.97287100
     5  N          0.88988700       0.05952000       0.58498100
     6  N          0.11011300       0.05952000       0.91501900
     7  N          0.11011300       0.94048000       0.41501900
     8  N          0.88988700       0.94048000       0.08498100
     9  H          0.90052200       0.15013900       0.66227600
    10  H          0.09947800       0.15013900       0.83772400
    11  H          0.09947800       0.84986100       0.33772400
    12  H          0.90052200       0.84986100       0.16227600
    13  H          0.84540100       0.94560800       0.57833400
    14  H          0.15459900       0.94560800       0.92166600
    15  H          0.15459900       0.05439200       0.42166600
    16  H          0.84540100       0.05439200       0.07833400
    17  N          0.80075700       0.57482000       0.32605110
    18  N          0.19924300       0.57482000       0.17394890
    19  N          0.19924300       0.42518000       0.67394890
    20  N          0.80075700       0.42518000       0.82605110
    21  N          0.88173700       0.50232000       0.29789110
    22  N          0.11826300       0.50232000       0.20210890
    23  N          0.11826300       0.49768000       0.70210890
    24  N          0.88173700       0.49768000       0.79789110
    25  C          0.91958800       0.30703000       0.38796120
    26  C          0.08041200       0.30703000       0.11203880
    27  C          0.08041200       0.69297000       0.61203880
    28  C          0.91958800       0.69297000       0.88796120
    29  H          0.97459800       0.22010600       0.39278400
    30  H          0.02540200       0.22010600       0.10721600
    31  H          0.02540200       0.77989400       0.60721600
    32  H          0.97459800       0.77989400       0.89278400
    33  C          0.79386800       0.42172000       0.43116120
    34  C          0.20613200       0.42172000       0.06883880
    35  C          0.20613200       0.57828000       0.56883880
    36  C          0.79386800       0.57828000       0.93116120
    37  H          0.74609900       0.42930200       0.47116400
    38  H          0.25390100       0.42930200       0.02883600
    39  H          0.25390100       0.57069800       0.52883600
    40  H          0.74609900       0.57069800       0.97116400
    41  N          0.67749700      -0.01968000       0.18613110
    42  N          0.32250300      -0.01968000       0.31386890
    43  N          0.32250300       0.01968000       0.81386890
    44  N          0.67749700       0.01968000       0.68613110
    45  N          0.68785700       0.11722000       0.07504110
    46  N          0.31214300       0.11722000       0.42495890
    47  N          0.31214300       0.88278000       0.92495890
    48  N          0.68785700       0.88278000       0.57504110
    49  N          0.62168700       0.30282000       0.03763110
    50  N          0.37831300       0.30282000       0.46236890
    51  N          0.37831300       0.69718000       0.96236890
    52  N          0.62168700       0.69718000       0.53763110
    53  C          0.60496800       0.07543000       0.22166130
    54  C          0.39503200       0.07543000       0.27833870
    55  C          0.39503200       0.92457000       0.77833870
    56  C          0.60496800       0.92457000       0.72166130
    57  H          0.58340400       0.01482500       0.29478500
    58  H          0.41659600       0.01482500       0.20521500
    59  H          0.41659600      -0.01482500       0.70521500
    60  H          0.58340400      -0.01482500       0.79478500
    61  C          0.56959900       0.28153000       0.12659130
    62  C          0.43040100       0.28153000       0.37340870
    63  C          0.43040100       0.71847000       0.87340870
    64  C          0.56959900       0.71847000       0.62659130
    65  H          0.51850000       0.38887400       0.12347400
    66  H          0.48150000       0.38887400       0.37652600
    67  H          0.48150000       0.61112600       0.87652600
    68  H          0.51850000       0.61112600       0.62347400
    69  H          0.72111400       0.84450000       0.23120000
    70  H          0.27888600       0.84450000       0.26880000
    71  H          0.27888600       0.15550000       0.76880000
    72  H          0.72111400       0.15550000       0.73120000
