data_NOTSOI
_symmetry_space_group_name_H-M    'P1'
_symmetry_Int_Tables_number       1
loop_
_symmetry_equiv_pos_site_id
_symmetry_equiv_pos_as_xyz
1 x,y,z
_cell_length_a                   9.56327
_cell_length_b                   10.03455
_cell_length_c                   11.28409
_cell_angle_alpha                85.5965
_cell_angle_beta                 65.1658
_cell_angle_gamma                66.1206
loop_
_atom_site_label
_atom_site_type_symbol
_atom_site_fract_x
_atom_site_fract_y
_atom_site_fract_z
     1  S          0.99461800       0.40766700       0.19480700
     2  S          0.00538200       0.59233300       0.80519300
     3  N          0.74863000       0.56572000       0.13072000
     4  N          0.25137000       0.43428000       0.86928000
     5  H          0.64137900       0.60983800       0.14565200
     6  H          0.35862100       0.39016200       0.85434800
     7  H          0.82754300       0.56624400       0.05393900
     8  H          0.17245700       0.43375600       0.94606100
     9  C          0.51273000       0.66812000       0.40132000
    10  C          0.48727000       0.33188000       0.59868000
    11  C          0.54863000       0.42562000       0.32372000
    12  C          0.45137000       0.57438000       0.67628000
    13  C          0.34593000       0.69492000       0.48762000
    14  C          0.65407000       0.30508000       0.51238000
    15  C          0.63883000       0.50652000       0.35332000
    16  C          0.36117000       0.49348000       0.64668000
    17  C          0.62373000       0.32332000       0.21462000
    18  C          0.37627000       0.67668000       0.78538000
    19  H          0.73782500       0.29938200       0.15405100
    20  H          0.26217500       0.70061800       0.84594900
    21  C          0.79093000       0.49852000       0.22352000
    22  C          0.20907000       0.50148000       0.77648000
    23  C          0.53333000       0.25582000       0.19352000
    24  C          0.46667000       0.74418000       0.80648000
    25  H          0.58622300       0.18612700       0.11871800
    26  H          0.41377700       0.81387300       0.88128200
    27  C          0.38143000       0.45662000       0.41372000
    28  C          0.61857000       0.54338000       0.58628000
    29  C          0.29153000       0.38932000       0.39132000
    30  C          0.70847000       0.61068000       0.60868000
    31  H          0.17775500       0.41172500       0.45206700
    32  H          0.82224500       0.58827500       0.54793300
    33  C          0.55773000       0.78622000       0.36832000
    34  C          0.44227000       0.21378000       0.63168000
    35  H          0.67239500       0.76876300       0.31475100
    36  H          0.32760500       0.23123700       0.68524900
    37  C          0.30263000       0.56522000       0.53322000
    38  C          0.69737000       0.43478000       0.46678000
    39  H          0.17700100       0.60007300       0.56996900
    40  H          0.82299900       0.39992700       0.43003100
    41  C          0.36713000       0.28952000       0.28053000
    42  C          0.63287000       0.71048000       0.71947000
    43  H          0.30490600       0.24478200       0.26472500
    44  H          0.69509400       0.75521800       0.73527500
    45  C          0.22373000       0.83922000       0.53062000
    46  C          0.77627000       0.16078000       0.46938000
    47  H          0.10945200       0.85742500       0.58641300
    48  H          0.89054800       0.14257500       0.41358700
    49  C          0.26973000       0.95612000       0.49152000
    50  C          0.73027000       0.04388000       0.50848000
    51  H          0.18640400       0.05411600       0.51883700
    52  H          0.81359600       0.94588400       0.48116300
    53  C          0.43663000       0.92922000       0.41293000
    54  C          0.56337000       0.07078000       0.58707000
    55  H          0.46876500       0.00883900       0.38918800
    56  H          0.53123500      -0.00883900       0.61081200
    57  N          0.41453000       0.72712000       0.14852000
    58  N          0.58547000       0.27288000       0.85148000
    59  C          0.08853000       0.86033000       0.15642000
    60  C          0.91147000       0.13967000       0.84358000
    61  C          0.17143000       0.94353000       0.16532000
    62  C          0.82857000       0.05647000       0.83468000
    63  H          0.11819000       0.04758800       0.17419200
    64  H          0.88181000       0.95241200       0.82580800
    65  C          0.92137000       0.93143000       0.15553000
    66  C          0.07863000       0.06857000       0.84447000
    67  H          0.85324400       0.03015900       0.19442700
    68  H          0.14675600       0.96984100       0.80557300
    69  C          0.33213000       0.64843000       0.14293000
    70  C          0.66787000       0.35157000       0.85707000
    71  H          0.38752500       0.54455400       0.13550000
    72  H          0.61247500       0.45544600       0.86450000
    73  C          0.17293000       0.70823000       0.14702000
    74  C          0.82707000       0.29177000       0.85298000
    75  H          0.12066400       0.64663600       0.14355300
    76  H          0.87933600       0.35336400       0.85644700
    77  C          0.85886000       0.86833000       0.10463000
    78  C          0.14114000       0.13167000       0.89537000
    79  H          0.92341200       0.76970700       0.06480300
    80  H          0.07658800       0.23029300       0.93519700
    81  H          0.74940400       0.92146800       0.10762800
    82  H          0.25059600       0.07853200       0.89237200
    83  C          0.33144000       0.87363000       0.16123000
    84  C          0.66856000       0.12637000       0.83877000
    85  H          0.38541100       0.93217600       0.16764700
    86  H          0.61458900       0.06782400       0.83235300
