data_NOVTAT
_symmetry_space_group_name_H-M    'P1'
_symmetry_Int_Tables_number       1
loop_
_symmetry_equiv_pos_site_id
_symmetry_equiv_pos_as_xyz
1 x,y,z
_cell_length_a                   12.1657
_cell_length_b                   8.9456
_cell_length_c                   19.2447
_cell_angle_alpha                90.0
_cell_angle_beta                 91.334
_cell_angle_gamma                90.0
loop_
_atom_site_label
_atom_site_type_symbol
_atom_site_fract_x
_atom_site_fract_y
_atom_site_fract_z
     1  O          0.32441000       0.83978000       0.54840800
     2  O          0.67559000       0.33978000       0.95159200
     3  O          0.67559000       0.16022000       0.45159200
     4  O          0.32441000       0.66022000       0.04840800
     5  O          0.25621000       0.82658000       0.65224800
     6  O          0.74379000       0.32658000       0.84775200
     7  O          0.74379000       0.17342000       0.34775200
     8  O          0.25621000       0.67342000       0.15224800
     9  C          0.46322000       0.00662000       0.68261000
    10  C          0.53678000       0.50662000       0.81739000
    11  C          0.53678000      -0.00662000       0.31739000
    12  C          0.46322000       0.49338000       0.18261000
    13  C          0.43831000       0.14282000       0.63801000
    14  C          0.56169000       0.64282000       0.86199000
    15  C          0.56169000       0.85718000       0.36199000
    16  C          0.43831000       0.35718000       0.13801000
    17  C          0.47692000       0.18033000       0.57321000
    18  C          0.52308000       0.68033000       0.92679000
    19  C          0.52308000       0.81967000       0.42679000
    20  C          0.47692000       0.31967000       0.07321000
    21  C          0.44472000       0.31613000       0.54371000
    22  C          0.55528000       0.81613000       0.95629000
    23  C          0.55528000       0.68387000       0.45629000
    24  C          0.44472000       0.18387000       0.04371000
    25  C          0.37692000       0.41263000       0.57862000
    26  C          0.62308000       0.91263000       0.92138000
    27  C          0.62308000       0.58737000       0.42138000
    28  C          0.37692000       0.08737000       0.07862000
    29  C          0.33802000       0.37703000       0.64311000
    30  C          0.66198000       0.87703000       0.85689000
    31  C          0.66198000       0.62297000       0.35689000
    32  C          0.33802000       0.12297000       0.14311000
    33  C          0.36781000       0.23962000       0.67251000
    34  C          0.63219000       0.73962000       0.82749000
    35  C          0.63219000       0.76038000       0.32749000
    36  C          0.36781000       0.26038000       0.17251000
    37  C          0.33911000       0.17142000       0.73881000
    38  C          0.66089000       0.67142000       0.76119000
    39  C          0.66089000       0.82858000       0.26119000
    40  C          0.33911000       0.32858000       0.23881000
    41  C          0.27162000       0.22103000       0.79121000
    42  C          0.72838000       0.72103000       0.70879000
    43  C          0.72838000       0.77897000       0.20879000
    44  C          0.27162000       0.27897000       0.29121000
    45  C          0.26032000       0.13463000       0.84951000
    46  C          0.73968000       0.63463000       0.65049000
    47  C          0.73968000       0.86537000       0.15049000
    48  C          0.26032000       0.36537000       0.34951000
    49  C          0.31422000      -0.00053000       0.85631000
    50  C          0.68578000       0.49947000       0.64369000
    51  C          0.68578000       0.00053000       0.14369000
    52  C          0.31422000       0.50053000       0.35631000
    53  C          0.38082000       0.94857000       0.80401000
    54  C          0.61918000       0.44857000       0.69599000
    55  C          0.61918000       0.05143000       0.19599000
    56  C          0.38082000       0.55143000       0.30401000
    57  C          0.39311000       0.03422000       0.74531000
    58  C          0.60689000       0.53422000       0.75469000
    59  C          0.60689000       0.96578000       0.25469000
    60  C          0.39311000       0.46578000       0.24531000
    61  C          0.44822000       0.85547000       0.64561000
    62  C          0.55178000       0.35547000       0.85439000
    63  C          0.55178000       0.14453000       0.35439000
    64  C          0.44822000       0.64453000       0.14561000
    65  C          0.33742000       0.83918000       0.60991000
    66  C          0.66258000       0.33918000       0.89009000
    67  C          0.66258000       0.16082000       0.39009000
    68  C          0.33742000       0.66082000       0.10991000
    69  H          0.54020000       0.01120000       0.69709000
    70  H          0.45980000       0.51120000       0.80291000
    71  H          0.45980000      -0.01120000       0.30291000
    72  H          0.54020000       0.48880000       0.19709000
    73  H          0.52620000       0.11020000       0.54851000
    74  H          0.47380000       0.61020000       0.95149000
    75  H          0.47380000       0.88980000       0.45149000
    76  H          0.52620000       0.38980000       0.04851000
    77  H          0.47320000       0.34520000       0.49710000
    78  H          0.52680000       0.84520000       0.00290000
    79  H          0.52680000       0.65480000       0.50290000
    80  H          0.47320000       0.15480000      -0.00290000
    81  H          0.35620000       0.51020000       0.55510000
    82  H          0.64380000       0.01020000       0.94490000
    83  H          0.64380000       0.48980000       0.44490000
    84  H          0.35620000      -0.01020000       0.05510000
    85  H          0.29020000       0.44420000       0.66981000
    86  H          0.70980000       0.94420000       0.83019000
    87  H          0.70980000       0.55580000       0.33019000
    88  H          0.29020000       0.05580000       0.16981000
    89  H          0.23510000       0.31820000       0.78579000
    90  H          0.76490000       0.81820000       0.71421000
    91  H          0.76490000       0.68180000       0.21421000
    92  H          0.23510000       0.18180000       0.28579000
    93  H          0.21420000       0.16520000       0.88810000
    94  H          0.78580000       0.66520000       0.61190000
    95  H          0.78580000       0.83480000       0.11190000
    96  H          0.21420000       0.33480000       0.38810000
    97  H          0.30920000       0.93980000       0.89810000
    98  H          0.69080000       0.43980000       0.60190000
    99  H          0.69080000       0.06020000       0.10190000
   100  H          0.30920000       0.56020000       0.39810000
   101  H          0.41610000       0.85380000       0.80759000
   102  H          0.58390000       0.35380000       0.69241000
   103  H          0.58390000       0.14620000       0.19241000
   104  H          0.41610000       0.64620000       0.30759000
   105  H          0.45710000       0.77480000       0.67821000
   106  H          0.54290000       0.27480000       0.82179000
   107  H          0.54290000       0.22520000       0.32179000
   108  H          0.45710000       0.72520000       0.17821000
   109  H          0.50310000       0.84180000       0.60799000
   110  H          0.49690000       0.34180000       0.89201000
   111  H          0.49690000       0.15820000       0.39201000
   112  H          0.50310000       0.65820000       0.10799000
   113  H          0.17920000       0.82370000       0.62610000
   114  H          0.82080000       0.32370000       0.87390000
   115  H          0.82080000       0.17630000       0.37390000
   116  H          0.17920000       0.67630000       0.12610000
   117  N          0.95089000       0.15832000       0.39657800
   118  N          0.04911000       0.65832000       0.10342200
   119  N          0.04911000       0.84168000       0.60342200
   120  N          0.95089000       0.34168000       0.89657800
   121  C          0.01642000       0.06142000       0.36231000
   122  C          0.98358000       0.56142000       0.13769000
   123  C          0.98358000       0.93858000       0.63769000
   124  C          0.01642000       0.43858000       0.86231000
   125  C          0.98118000       0.00743000       0.29581000
   126  C          0.01882000       0.50743000       0.20419000
   127  C          0.01882000      -0.00743000       0.70419000
   128  C          0.98118000       0.49257000       0.79581000
   129  C          0.04663000       0.91187000       0.26041000
   130  C          0.95337000       0.41187000       0.23959000
   131  C          0.95337000       0.08813000       0.73959000
   132  C          0.04663000       0.58813000       0.76041000
   133  C          0.14783000       0.86167000       0.28822000
   134  C          0.85217000       0.36167000       0.21178000
   135  C          0.85217000       0.13833000       0.71178000
   136  C          0.14783000       0.63833000       0.78822000
   137  C          0.18232000       0.90877000       0.35132000
   138  C          0.81768000       0.40877000       0.14868000
   139  C          0.81768000       0.09123000       0.64868000
   140  C          0.18232000       0.59123000       0.85132000
   141  C          0.11872000       0.01062000       0.39091000
   142  C          0.88128000       0.51062000       0.10909000
   143  C          0.88128000      -0.01062000       0.60909000
   144  C          0.11872000       0.48938000       0.89091000
   145  C          0.15102000       0.06232000       0.45591000
   146  C          0.84898000       0.56232000       0.04409000
   147  C          0.84898000       0.93768000       0.54409000
   148  C          0.15102000       0.43768000       0.95591000
   149  C          0.08632000       0.16232000       0.49131000
   150  C          0.91368000       0.66232000       0.00869000
   151  C          0.91368000       0.83768000       0.50869000
   152  C          0.08632000       0.33768000       0.99131000
   153  C          0.11642000       0.21933000       0.55821000
   154  C          0.88358000       0.71933000       0.94179000
   155  C          0.88358000       0.78067000       0.44179000
   156  C          0.11642000       0.28067000       0.05821000
   157  C          0.05102000       0.31683000       0.59031000
   158  C          0.94898000       0.81683000       0.90969000
   159  C          0.94898000       0.68317000       0.40969000
   160  C          0.05102000       0.18317000       0.09031000
   161  C          0.95178000       0.36443000       0.55871000
   162  C          0.04822000       0.86443000       0.94129000
   163  C          0.04822000       0.63557000       0.44129000
   164  C          0.95178000       0.13557000       0.05871000
   165  C          0.91868000       0.31242000       0.49551000
   166  C          0.08132000       0.81242000       0.00449000
   167  C          0.08132000       0.68758000       0.50449000
   168  C          0.91868000       0.18758000      -0.00449000
   169  C          0.98509000       0.20942000       0.45931000
   170  C          0.01491000       0.70942000       0.04069000
   171  C          0.01491000       0.79058000       0.54069000
   172  C          0.98509000       0.29058000       0.95931000
   173  H          0.91180000       0.04220000       0.27901000
   174  H          0.08820000       0.54220000       0.22099000
   175  H          0.08820000       0.95780000       0.72099000
   176  H          0.91180000       0.45780000       0.77901000
   177  H          0.01720000       0.87880000       0.21510000
   178  H          0.98280000       0.37880000       0.28490000
   179  H          0.98280000       0.12120000       0.78490000
   180  H          0.01720000       0.62120000       0.71510000
   181  H          0.19320000       0.79180000       0.26010000
   182  H          0.80680000       0.29180000       0.23990000
   183  H          0.80680000       0.20820000       0.73990000
   184  H          0.19320000       0.70820000       0.76010000
   185  H          0.24920000       0.87180000       0.37410000
   186  H          0.75080000       0.37180000       0.12590000
   187  H          0.75080000       0.12820000       0.62590000
   188  H          0.24920000       0.62820000       0.87410000
   189  H          0.21910000       0.02220000       0.47899000
   190  H          0.78090000       0.52220000       0.02101000
   191  H          0.78090000       0.97780000       0.52101000
   192  H          0.21910000       0.47780000       0.97899000
   193  H          0.18520000       0.17920000       0.57910000
   194  H          0.81480000       0.67920000       0.92090000
   195  H          0.81480000       0.82080000       0.42090000
   196  H          0.18520000       0.32080000       0.07910000
   197  H          0.07020000       0.35520000       0.63810000
   198  H          0.92980000       0.85520000       0.86190000
   199  H          0.92980000       0.64480000       0.36190000
   200  H          0.07020000       0.14480000       0.13810000
   201  H          0.90280000       0.43220000       0.58210000
   202  H          0.09720000       0.93220000       0.91790000
   203  H          0.09720000       0.56780000       0.41790000
   204  H          0.90280000       0.06780000       0.08210000
   205  H          0.85280000       0.34320000       0.47031000
   206  H          0.14720000       0.84320000       0.02969000
   207  H          0.14720000       0.65680000       0.52969000
   208  H          0.85280000       0.15680000       0.97031000
