data_NOVZON
_symmetry_space_group_name_H-M    'P1'
_symmetry_Int_Tables_number       1
loop_
_symmetry_equiv_pos_site_id
_symmetry_equiv_pos_as_xyz
1 x,y,z
_cell_length_a                   7.0181
_cell_length_b                   10.3441
_cell_length_c                   10.7571
_cell_angle_alpha                63.751
_cell_angle_beta                 75.781
_cell_angle_gamma                73.821
loop_
_atom_site_label
_atom_site_type_symbol
_atom_site_fract_x
_atom_site_fract_y
_atom_site_fract_z
     1  S          0.47571000       0.72701000       0.36201000
     2  S          0.52429000       0.27299000       0.63799000
     3  S          0.98001000       0.41111000       0.72931000
     4  S          0.01999000       0.58889000       0.27069000
     5  S          0.23421000       0.61531000       0.90051000
     6  S          0.76579000       0.38469000       0.09949000
     7  N          0.37393000       0.65932000       0.63552000
     8  N          0.62607000       0.34068000       0.36448000
     9  N          0.70553000       0.57702000       0.56072000
    10  N          0.29447000       0.42298000       0.43928000
    11  C          0.51773000       0.65112000       0.52562000
    12  C          0.48227000       0.34888000       0.47438000
    13  N          0.59913000       0.52212000       0.79322000
    14  N          0.40087000       0.47788000       0.20678000
    15  C          0.75383000       0.50652000       0.69192000
    16  C          0.24617000       0.49348000       0.30808000
    17  C          0.40903000       0.59853000       0.76972000
    18  C          0.59097000       0.40147000       0.23028000
    19  H          0.79294100       0.57312700       0.49372900
    20  H          0.20705900       0.42687300       0.50627100
    21  H          0.62804000       0.48262800       0.87502900
    22  H          0.37196000       0.51737200       0.12497100
    23  H          0.24275300       0.71003500       0.61553300
    24  H          0.75724700       0.28996500       0.38446700
    25  C          0.60367000       0.96072000       0.51422000
    26  C          0.39633000       0.03928000       0.48578000
    27  C          0.94686000       0.86963000       0.44053000
    28  C          0.05314000       0.13037000       0.55947000
    29  C          0.65426000       0.89703000       0.64863000
    30  C          0.34574000       0.10297000       0.35137000
    31  N         -0.00673000       0.80832000       0.56992000
    32  N          0.00673000       0.19168000       0.43008000
    33  C          0.84696000       0.82273000       0.67183000
    34  C          0.15304000       0.17727000       0.32817000
    35  C          0.75667000       0.94533000       0.40873000
    36  C          0.24333000       0.05467000       0.59127000
    37  H          0.04754100       0.86192700       0.37092800
    38  H          0.95245900       0.13807300       0.62907200
    39  H          0.55845600       0.90042900       0.72573100
    40  H          0.44154400       0.09957100       0.27426900
    41  H          0.73685900       0.98832900       0.31623100
    42  H          0.26314100       0.01167100       0.68376900
    43  H          0.87855800       0.77643000       0.76413100
    44  H          0.12144200       0.22357000       0.23586900
    45  C          0.36811500       0.91611000       0.01455000
    46  C          0.63188500       0.08389000      -0.01455000
    47  C          0.30241100       0.05701100       0.00535000
    48  C          0.69758900       0.94298900      -0.00535000
    49  C          0.56671800       0.86047000       0.00865000
    50  C          0.43328200       0.13953000      -0.00865000
    51  H          0.17768100       0.08546100       0.01095400
    52  H          0.82231900       0.91453900      -0.01095400
    53  H          0.26669300       0.86216600       0.01906000
    54  H          0.73330700       0.13783400       0.98094000
    55  H          0.60669000       0.76616500       0.01395600
    56  H          0.39331000       0.23383500      -0.01395600
