data_NOZXIJ
_symmetry_space_group_name_H-M    'P1'
_symmetry_Int_Tables_number       1
loop_
_symmetry_equiv_pos_site_id
_symmetry_equiv_pos_as_xyz
1 x,y,z
_cell_length_a                   10.29471
_cell_length_b                   16.3682
_cell_length_c                   10.38221
_cell_angle_alpha                90.0
_cell_angle_beta                 96.8451
_cell_angle_gamma                90.0
loop_
_atom_site_label
_atom_site_type_symbol
_atom_site_fract_x
_atom_site_fract_y
_atom_site_fract_z
     1  N          0.69926130       0.59762900       0.77125140
     2  N          0.80073870       0.09762900       0.72874860
     3  N          0.30073870       0.40237100       0.22874860
     4  N          0.19926130       0.90237100       0.27125140
     5  H          0.72621900       0.56521200       0.72321900
     6  H          0.77378100       0.06521200       0.77678100
     7  H          0.27378100       0.43478800       0.27678100
     8  H          0.22621900       0.93478800       0.22321900
     9  S          0.81104400       0.63766300       0.88102400
    10  S          0.68895600       0.13766300       0.61897600
    11  S          0.18895600       0.36233700       0.11897600
    12  S          0.31104400       0.86233700       0.38102400
    13  S          0.56910400       0.64668300       0.70024400
    14  S          0.93089600       0.14668300       0.79975600
    15  S          0.43089600       0.35331700       0.29975600
    16  S          0.06910400       0.85331700       0.20024400
    17  O          0.89718120       0.57101800       0.91780120
    18  O          0.60281880       0.07101800       0.58219880
    19  O          0.10281880       0.42898200       0.08219880
    20  O          0.39718120       0.92898200       0.41780120
    21  O          0.74257120       0.67705800       0.97539120
    22  O          0.75742880       0.17705800       0.52460880
    23  O          0.25742880       0.32294200       0.02460880
    24  O          0.24257120       0.82294200       0.47539120
    25  O          0.53151120       0.59861900       0.58718120
    26  O          0.96848880       0.09861900       0.91281880
    27  O          0.46848880       0.40138100       0.41281880
    28  O          0.03151120       0.90138100       0.08718120
    29  O          0.59692120       0.73134800       0.68773140
    30  O          0.90307880       0.23134800       0.81226860
    31  O          0.40307880       0.26865200       0.31226860
    32  O          0.09692120       0.76865200       0.18773140
    33  C          0.89486150       0.71148100       0.80011150
    34  C          0.60513850       0.21148100       0.69988850
    35  C          0.10513850       0.28851900       0.19988850
    36  C          0.39486150       0.78851900       0.30011150
    37  C          0.95283160       0.68889110       0.69091160
    38  C          0.54716840       0.18889110       0.80908840
    39  C          0.04716840       0.31110890       0.30908840
    40  C          0.45283160       0.81110890       0.19091160
    41  H          0.94540000       0.63450000       0.65870000
    42  H          0.55460000       0.13450000       0.84130000
    43  H          0.05460000       0.36550000       0.34130000
    44  H          0.44540000       0.86550000       0.15870000
    45  C          0.02134170       0.74725110       0.63037170
    46  C          0.47865830       0.24725110       0.86962830
    47  C          0.97865830       0.25274890       0.36962830
    48  C          0.52134170       0.75274890       0.13037170
    49  H          0.06110000       0.73310000       0.55540000
    50  H          0.43890000       0.23310000       0.94460000
    51  H          0.93890000       0.26690000       0.44460000
    52  H          0.56110000       0.76690000       0.05540000
    53  C          0.03233180       0.82613110       0.67840170
    54  C          0.46766820       0.32613110       0.82159830
    55  C          0.96766820       0.17386890       0.32159830
    56  C          0.53233180       0.67386890       0.17840170
    57  H          0.07990000       0.86580000       0.63640000
    58  H          0.42010000       0.36580000       0.86360000
    59  H          0.92010000       0.13420000       0.36360000
    60  H          0.57990000       0.63420000       0.13640000
    61  C          0.97461170       0.84766110       0.78704180
    62  C          0.52538830       0.34766110       0.71295820
    63  C          0.02538830       0.15233890       0.21295820
    64  C          0.47461170       0.65233890       0.28704180
    65  H          0.98280000       0.90190000       0.81950000
    66  H          0.51720000       0.40190000       0.68050000
    67  H          0.01720000       0.09810000       0.18050000
    68  H          0.48280000       0.59810000       0.31950000
    69  C          0.90472160       0.79017110       0.84882170
    70  C          0.59527840       0.29017110       0.65117830
    71  C          0.09527840       0.20982890       0.15117830
    72  C          0.40472160       0.70982890       0.34882170
    73  H          0.86430000       0.80460000       0.92330000
    74  H          0.63570000       0.30460000       0.57670000
    75  H          0.13570000       0.19540000       0.07670000
    76  H          0.36430000       0.69540000       0.42330000
    77  C          0.44815150       0.63589100       0.80580160
    78  C          0.05184850       0.13589100       0.69419840
    79  C          0.55184850       0.36410900       0.19419840
    80  C          0.94815150       0.86410900       0.30580160
    81  C          0.42557180       0.55991120       0.85705180
    82  C          0.07442820       0.05991120       0.64294820
    83  C          0.57442820       0.44008880       0.14294820
    84  C          0.92557180       0.94008880       0.35705180
    85  H          0.48190000       0.51530000       0.84490000
    86  H          0.01810000       0.01530000       0.65510000
    87  H          0.51810000       0.48470000       0.15510000
    88  H          0.98190000       0.98470000       0.34490000
    89  C          0.32022000       0.54989140       0.92592000
    90  C          0.17978000       0.04989140       0.57408000
    91  C          0.67978000       0.45010860       0.07408000
    92  C          0.82022000       0.95010860       0.42592000
    93  H          0.30390000       0.49800000       0.96170000
    94  H          0.19610000      -0.00200000       0.53830000
    95  H          0.69610000       0.50200000       0.03830000
    96  H          0.80390000       0.00200000       0.46170000
    97  C          0.23861180       0.61442150       0.94335180
    98  C          0.26138820       0.11442150       0.55664820
    99  C          0.76138820       0.38557850       0.05664820
   100  C          0.73861180       0.88557850       0.44335180
   101  H          0.16520000       0.60670000      -0.01060000
   102  H          0.33480000       0.10670000       0.51060000
   103  H          0.83480000       0.39330000       0.01060000
   104  H          0.66520000       0.89330000       0.48940000
   105  C          0.26315190       0.69002150       0.89422000
   106  C          0.23684810       0.19002150       0.60578000
   107  C          0.73684810       0.30997850       0.10578000
   108  C          0.76315190       0.80997850       0.39422000
   109  H          0.20770000       0.73470000       0.90840000
   110  H          0.29230000       0.23470000       0.59160000
   111  H          0.79230000       0.26530000       0.09160000
   112  H          0.70770000       0.76530000       0.40840000
   113  C          0.36855180       0.70162120       0.82382000
   114  C          0.13144820       0.20162120       0.67618000
   115  C          0.63144820       0.29837880       0.17618000
   116  C          0.86855180       0.79837880       0.32382000
   117  H          0.38530000       0.75370000       0.78900000
   118  H          0.11470000       0.25370000       0.71100000
   119  H          0.61470000       0.24630000       0.21100000
   120  H          0.88530000       0.74630000       0.28900000
   121  O          0.91902120       0.58813800       0.40731120
   122  O          0.58097880       0.08813800       0.09268880
   123  O          0.08097880       0.41186200       0.59268880
   124  O          0.41902120       0.91186200       0.90731120
   125  C          0.79004170       0.55802130       0.41408190
   126  C          0.70995830       0.05802130       0.08591810
   127  C          0.20995830       0.44197870       0.58591810
   128  C          0.29004170       0.94197870       0.91408190
   129  H          0.74470000       0.55180000       0.32500000
   130  H          0.75530000       0.05180000       0.17500000
   131  H          0.25530000       0.44820000       0.67500000
   132  H          0.24470000       0.94820000       0.82500000
   133  H          0.74070000       0.59840000       0.46010000
   134  H          0.75930000       0.09840000       0.03990000
   135  H          0.25930000       0.40160000       0.53990000
   136  H          0.24070000       0.90160000       0.96010000
   137  C          0.79013180       0.47740120       0.48291180
   138  C          0.70986820       0.97740120       0.01708820
   139  C          0.20986820       0.52259880       0.51708820
   140  C          0.29013180       0.02259880       0.98291180
   141  H          0.70240000       0.45200000       0.46730000
   142  H          0.79760000       0.95200000       0.03270000
   143  H          0.29760000       0.54800000       0.53270000
   144  H          0.20240000       0.04800000       0.96730000
   145  H          0.85410000       0.44000000       0.44990000
   146  H          0.64590000       0.94000000       0.05010000
   147  H          0.14590000       0.56000000       0.55010000
   148  H          0.35410000       0.06000000       0.94990000
   149  O          0.82476120       0.49122800       0.61933120
   150  O          0.67523880       0.99122800       0.88066880
   151  O          0.17523880       0.50877200       0.38066880
   152  O          0.32476120       0.00877200       0.11933120
   153  C          0.88512190       0.42374120       0.69195190
   154  C          0.61487810       0.92374120       0.80804810
   155  C          0.11487810       0.57625880       0.30804810
   156  C          0.38512190       0.07625880       0.19195190
   157  H          0.86120000       0.37210000       0.64540000
   158  H          0.63880000       0.87210000       0.85460000
   159  H          0.13880000       0.62790000       0.35460000
   160  H          0.36120000       0.12790000       0.14540000
   161  H          0.85230000       0.42110000       0.77770000
   162  H          0.64770000       0.92110000       0.72230000
   163  H          0.14770000       0.57890000       0.22230000
   164  H          0.35230000       0.07890000       0.27770000
   165  C          0.96904180       0.56747120       0.28940170
   166  C          0.53095820       0.06747120       0.21059830
   167  C          0.03095820       0.43252880       0.71059830
   168  C          0.46904180       0.93252880       0.78940170
   169  H          0.94500000       0.51050000       0.26480000
   170  H          0.55500000       0.01050000       0.23520000
   171  H          0.05500000       0.48950000       0.73520000
   172  H          0.44500000       0.98950000       0.76480000
   173  H          0.93100000       0.60410000       0.21890000
   174  H          0.56900000       0.10410000       0.28110000
   175  H          0.06900000       0.39590000       0.78110000
   176  H          0.43100000       0.89590000       0.71890000
