data_NUBROU
_symmetry_space_group_name_H-M    'P1'
_symmetry_Int_Tables_number       1
loop_
_symmetry_equiv_pos_site_id
_symmetry_equiv_pos_as_xyz
1 x,y,z
_cell_length_a                   5.1665
_cell_length_b                   5.6946
_cell_length_c                   17.26117
_cell_angle_alpha                98.375
_cell_angle_beta                 93.014
_cell_angle_gamma                98.126
loop_
_atom_site_label
_atom_site_type_symbol
_atom_site_fract_x
_atom_site_fract_y
_atom_site_fract_z
     1  I          0.96264400       0.40170400       0.19387200
     2  I          0.03735600       0.59829600       0.80612800
     3  C          0.14576000       0.21846000       0.09866180
     4  C          0.85424000       0.78154000       0.90133820
     5  C          0.94356000       0.06716000       0.03591170
     6  C          0.05644000       0.93284000       0.96408830
     7  F          0.79844000       0.90626000       0.07072110
     8  F          0.20156000       0.09374000       0.92927890
     9  F          0.30034000       0.37864000       0.06594130
    10  F          0.69966000       0.62136000       0.93405870
    11  F          0.78814000       0.21304000       0.01036120
    12  F          0.21186000       0.78696000       0.98963880
    13  F          0.30014000       0.07384000       0.12655120
    14  F          0.69986000       0.92616000       0.87344880
    15  C          0.32436000       0.94745000       0.37489180
    16  C          0.67564000       0.05255000       0.62510820
    17  N          0.67955000       0.67145000       0.30812160
    18  N          0.32045000       0.32855000       0.69187840
    19  C          0.42477000      -0.01064000       0.30480190
    20  C          0.57523000       0.01064000       0.69519810
    21  H          0.37593800       0.11426600       0.27881900
    22  H          0.62406200       0.88573400       0.72118100
    23  C          0.59847000       0.84386000       0.27351190
    24  C          0.40153000       0.15614000       0.72648810
    25  H          0.66332100       0.86889500       0.22441200
    26  H          0.33667900       0.13110500       0.77558800
    27  C          0.14097000       0.09406000       0.40865190
    28  C          0.85903000       0.90594000       0.59134810
    29  C          0.40266000       0.76516000       0.41140190
    30  C          0.59734000       0.23484000       0.58859810
    31  H          0.33444400       0.73061300       0.45923100
    32  H          0.66555600       0.26938700       0.54076900
    33  C          0.58347000       0.63466000       0.37605190
    34  C          0.41653000       0.36534000       0.62394810
    35  H          0.64164700       0.51265100       0.40164700
    36  H          0.35835300       0.48734900       0.59835300
    37  N         -0.00176000       0.21426000       0.43484180
    38  N          0.00176000       0.78574000       0.56515820
