data_NUBTAI
_symmetry_space_group_name_H-M    'P1'
_symmetry_Int_Tables_number       1
loop_
_symmetry_equiv_pos_site_id
_symmetry_equiv_pos_as_xyz
1 x,y,z
_cell_length_a                   4.275111
_cell_length_b                   27.9197
_cell_length_c                   12.1733
_cell_angle_alpha                90.0
_cell_angle_beta                 93.9647
_cell_angle_gamma                90.0
loop_
_atom_site_label
_atom_site_type_symbol
_atom_site_fract_x
_atom_site_fract_y
_atom_site_fract_z
     1  I          0.32632000       0.62622300       0.48761700
     2  I          0.67368000       0.12622300       0.01238300
     3  I          0.67368000       0.37377700       0.51238300
     4  I          0.32632000       0.87377700       0.98761700
     5  I          0.40392000       0.84102400       0.43840800
     6  I          0.59608000       0.34102400       0.06159200
     7  I          0.59608000       0.15897600       0.56159200
     8  I          0.40392000       0.65897600       0.93840800
     9  F          0.26401900       0.73753000       0.52676000
    10  F          0.73598100       0.23753000       0.97324000
    11  F          0.73598100       0.26247000       0.47324000
    12  F          0.26401900       0.76247000       0.02676000
    13  F          0.75131900       0.80373000       0.22766000
    14  F          0.24868100       0.30373000       0.27234000
    15  F          0.24868100       0.19627000       0.77234000
    16  F          0.75131900       0.69627000       0.72766000
    17  F          0.67520000       0.63813000       0.26247000
    18  F          0.32480000       0.13813000       0.23753000
    19  F          0.32480000       0.36187000       0.73753000
    20  F          0.67520000       0.86187000       0.76247000
    21  F          0.87020000       0.71523000       0.15706000
    22  F          0.12980000       0.21523000       0.34294000
    23  F          0.12980000       0.28477000       0.84294000
    24  F          0.87020000       0.78477000       0.65706000
    25  C          0.50130000       0.77304000       0.38031100
    26  C          0.49870000       0.27304000       0.11968900
    27  C          0.49870000       0.22696000       0.61968900
    28  C          0.50130000       0.72696000       0.88031100
    29  C          0.71930000       0.72046000       0.24791000
    30  C          0.28070000       0.22046000       0.25209000
    31  C          0.28070000       0.27954000       0.75209000
    32  C          0.71930000       0.77954000       0.74791000
    33  C          0.65930000       0.76605000       0.28321100
    34  C          0.34070000       0.26605000       0.21678900
    35  C          0.34070000       0.23395000       0.71678900
    36  C          0.65930000       0.73395000       0.78321100
    37  C          0.41030000       0.73105000       0.43291000
    38  C          0.58970000       0.23105000       0.06709000
    39  C          0.58970000       0.26895000       0.56709000
    40  C          0.41030000       0.76895000       0.93291000
    41  C          0.46530000       0.68585000       0.39959000
    42  C          0.53470000       0.18585000       0.10041000
    43  C          0.53470000       0.31415000       0.60041000
    44  C          0.46530000       0.81415000       0.89959000
    45  C          0.62130000       0.68215000       0.30441000
    46  C          0.37870000       0.18215000       0.19559000
    47  C          0.37870000       0.31785000       0.69559000
    48  C          0.62130000       0.81785000       0.80441000
    49  N          0.10330000       0.54855000       0.63301000
    50  N          0.89670000       0.04855000       0.86699000
    51  N          0.89670000       0.45145000       0.36699000
    52  N          0.10330000       0.95145000       0.13301000
    53  C          0.95660000       0.56836000       0.71281300
    54  C          0.04340000       0.06836000       0.78718700
    55  C          0.04340000       0.43164000       0.28718700
    56  C          0.95660000       0.93164000       0.21281300
    57  H          0.91983400       0.60112300       0.70914900
    58  H          0.08016600       0.10112300       0.79085100
    59  H          0.08016600       0.39887700       0.29085100
    60  H          0.91983400       0.89887700       0.20914900
    61  C          0.85270000       0.54335000       0.80301100
    62  C          0.14730000       0.04335000       0.69698900
    63  C          0.14730000       0.45665000       0.19698900
    64  C          0.85270000       0.95665000       0.30301100
    65  H          0.76225000       0.55887200       0.86045300
    66  H          0.23775000       0.05887200       0.63954700
    67  H          0.23775000       0.44112800       0.13954700
    68  H          0.76225000       0.94112800       0.36045300
    69  C          0.05340000       0.47296000       0.72251400
    70  C          0.94660000       0.97296000       0.77748600
    71  C          0.94660000       0.52704000       0.27748600
    72  C          0.05340000       0.02704000       0.22251400
    73  H          0.10196300       0.44047200       0.72510400
    74  H          0.89803700       0.94047200       0.77489600
    75  H          0.89803700       0.55952800       0.27489600
    76  H          0.10196300       0.05952800       0.22510400
    77  C          0.89070000       0.49435000       0.80221200
    78  C          0.10930000       0.99435000       0.69778800
    79  C          0.10930000       0.50565000       0.19778800
    80  C          0.89070000       0.00565000       0.30221200
    81  C          0.78060000       0.46646000       0.89231600
    82  C          0.21940000       0.96646000       0.60768400
    83  C          0.21940000       0.53354000       0.10768400
    84  C          0.78060000       0.03354000       0.39231600
    85  C          0.13840000       0.50157000       0.63901300
    86  C          0.86160000       0.00157000       0.86098700
    87  C          0.86160000       0.49843000       0.36098700
    88  C          0.13840000      -0.00157000       0.13901300
    89  H          0.22973000       0.48664800       0.58085900
    90  H          0.77027000       0.98664800       0.91914100
    91  H          0.77027000       0.51335200       0.41914100
    92  H          0.22973000       0.01335200       0.08085900
    93  N          0.69460000       0.44367000       0.96321400
    94  N          0.30540000       0.94367000       0.53678600
    95  N          0.30540000       0.55633000       0.03678600
    96  N          0.69460000       0.05633000       0.46321400
