data_NUCQEH
_symmetry_space_group_name_H-M    'P1'
_symmetry_Int_Tables_number       1
loop_
_symmetry_equiv_pos_site_id
_symmetry_equiv_pos_as_xyz
1 x,y,z
_cell_length_a                   6.646501
_cell_length_b                   7.57102
_cell_length_c                   7.89633
_cell_angle_alpha                88.4542
_cell_angle_beta                 81.75001
_cell_angle_gamma                87.05101
loop_
_atom_site_label
_atom_site_type_symbol
_atom_site_fract_x
_atom_site_fract_y
_atom_site_fract_z
     1  O          0.09681000       0.18931000       0.15241000
     2  O          0.90319000       0.81069000       0.84759000
     3  N          0.05072000       0.33841000       0.07861000
     4  N          0.94928000       0.66159000       0.92139000
     5  C          0.42592000       0.62132000       0.21292000
     6  C          0.57408000       0.37868000       0.78708000
     7  C          0.32342000       0.47282000       0.19212000
     8  C          0.67658000       0.52718000       0.80788000
     9  C          0.16022000       0.48501000       0.09471000
    10  C          0.83978000       0.51499000       0.90529000
    11  C          0.89088000       0.35131000      -0.01641000
    12  C          0.10912000       0.64869000       0.01641000
    13  C          0.78188000       0.20082000       0.96038000
    14  C          0.21812000       0.79918000       0.03962000
    15  C          0.37292000       0.78542000       0.13732000
    16  C          0.62708000       0.21458000       0.86268000
    17  H          0.44482600       0.89352100       0.15412000
    18  H          0.55517400       0.10647900       0.84588000
    19  H          0.35092500       0.36202100       0.24172000
    20  H          0.64907500       0.63797900       0.75828000
    21  H          0.53302500       0.60802000       0.28262000
    22  H          0.46697500       0.39198000       0.71738000
    23  H          0.81287500       0.09572200       0.01532000
    24  H          0.18712500       0.90427800      -0.01532000
    25  N          0.61958000       0.15122000       0.37912000
    26  N          0.38042000       0.84878000       0.62088000
    27  N          0.14072000       0.34772000       0.59672000
    28  N          0.85928000       0.65228000       0.40328000
    29  C          0.96138000       0.08442000       0.49321000
    30  C          0.03862000       0.91558000       0.50679000
    31  C          0.06302000       0.23052000       0.54982000
    32  C          0.93698000       0.76948000       0.45018000
    33  C          0.77168000       0.12172000       0.42722000
    34  C          0.22832000       0.87828000       0.57278000
