data_NUDJAB
_symmetry_space_group_name_H-M    'P1'
_symmetry_Int_Tables_number       1
loop_
_symmetry_equiv_pos_site_id
_symmetry_equiv_pos_as_xyz
1 x,y,z
_cell_length_a                   3.92141
_cell_length_b                   13.5094
_cell_length_c                   15.3604
_cell_angle_alpha                65.4939
_cell_angle_beta                 86.0341
_cell_angle_gamma                85.7861
loop_
_atom_site_label
_atom_site_type_symbol
_atom_site_fract_x
_atom_site_fract_y
_atom_site_fract_z
     1  S          0.72233000       0.98456800       0.37144800
     2  S          0.27767000       0.01543200       0.62855200
     3  N          0.57501100       0.63813000       0.30992000
     4  N          0.42498900       0.36187000       0.69008000
     5  N          0.44041200       0.83283000       0.52732000
     6  N          0.55958800       0.16717000       0.47268000
     7  H          0.36300000       0.76720000       0.55840000
     8  H          0.63700000       0.23280000       0.44160000
     9  H          0.43590000       0.87780000       0.55560000
    10  H          0.56410000       0.12220000       0.44440000
    11  C          0.45231100       0.74173000       0.26283000
    12  C          0.54768900       0.25827000       0.73717000
    13  C          0.44581100       0.81523000       0.30433000
    14  C          0.55418900       0.18477000       0.69567000
    15  H          0.36300000       0.88830000       0.27010000
    16  H          0.63700000       0.11170000       0.72990000
    17  C          0.56051100       0.78193000       0.39613000
    18  C          0.43948900       0.21807000       0.60387000
    19  C          0.67931200       0.67453000       0.44513000
    20  C          0.32068800       0.32547000       0.55487000
    21  H          0.75430000       0.64870000       0.50860000
    22  H          0.24570000       0.35130000       0.49140000
    23  C          0.68441300       0.60653000       0.39813000
    24  C          0.31558700       0.39347000       0.60187000
    25  H          0.77030000       0.53340000       0.43040000
    26  H          0.22970000       0.46660000       0.56960000
    27  C          0.33111300       0.77074000       0.16413000
    28  C          0.66888700       0.22926000       0.83587000
    29  H          0.13930000       0.72450000       0.16950000
    30  H          0.86070000       0.27550000       0.83050000
    31  H          0.51960000       0.75250000       0.12600000
    32  H          0.48040000       0.24750000       0.87400000
    33  C          0.21341500       0.88914000       0.10933000
    34  C          0.78658500       0.11086000       0.89067000
    35  H          0.13450000       0.89940000       0.04680000
    36  H          0.86550000       0.10060000       0.95320000
    37  H          0.40440000       0.93580000       0.10010000
    38  H          0.59560000       0.06420000       0.89990000
    39  H          0.02530000       0.90830000       0.14580000
    40  H         -0.02530000       0.09170000       0.85420000
    41  C          0.56341100       0.86383000       0.43823000
    42  C          0.43658900       0.13617000       0.56177000
    43  F          0.82468800       0.81993000       0.95442000
    44  F          0.17531200       0.18007000       0.04558000
    45  O          0.15891100       0.61963000       0.65072000
    46  O          0.84108900       0.38037000       0.34928000
    47  O          0.32201200       0.48293000       0.78632000
    48  O          0.67798800       0.51707000       0.21368000
    49  H          0.35280000       0.44980000       0.75040000
    50  H          0.64720000       0.55020000       0.24960000
    51  C          0.10411200       0.64483000       0.79593000
    52  C          0.89588800       0.35517000       0.20407000
    53  C          0.93148700       0.74633000       0.75423000
    54  C          0.06851300       0.25367000       0.24577000
    55  H          0.87770000       0.77470000       0.68860000
    56  H          0.12230000       0.22530000       0.31140000
    57  C          0.83778700       0.80614000       0.80743000
    58  C          0.16221300       0.19386000       0.19257000
    59  H          0.72040000       0.87530000       0.77950000
    60  H          0.27960000       0.12470000       0.22050000
    61  C          0.91998600       0.76204000       0.90183000
    62  C          0.08001400       0.23796000       0.09817000
    63  C          0.09351500       0.66284000       0.94573000
    64  C          0.90648500       0.33716000       0.05427000
    65  H          0.15020000       0.63560000       0.01100000
    66  H          0.84980000       0.36440000       0.98900000
    67  C          0.18211300       0.60393000       0.89163000
    68  C          0.81788700       0.39607000       0.10837000
    69  H          0.29800000       0.53450000       0.92040000
    70  H          0.70200000       0.46550000       0.07960000
    71  C          0.19821200       0.58163000       0.73733000
    72  C          0.80178800       0.41837000       0.26267000
