data_NUDJEF
_symmetry_space_group_name_H-M    'P1'
_symmetry_Int_Tables_number       1
loop_
_symmetry_equiv_pos_site_id
_symmetry_equiv_pos_as_xyz
1 x,y,z
_cell_length_a                   3.93573
_cell_length_b                   13.534311
_cell_length_c                   15.611113
_cell_angle_alpha                65.5403
_cell_angle_beta                 83.5763
_cell_angle_gamma                83.8533
loop_
_atom_site_label
_atom_site_type_symbol
_atom_site_fract_x
_atom_site_fract_y
_atom_site_fract_z
     1  S          0.71182130       0.98457400       0.37055300
     2  S          0.28817870       0.01542600       0.62944700
     3  N          0.59064000       0.63558120       0.31418110
     4  N          0.40936000       0.36441880       0.68581890
     5  N          0.42465000       0.83578140       0.52453110
     6  N          0.57535000       0.16421860       0.47546890
     7  C          0.47024000       0.73923140       0.26625120
     8  C          0.52976000       0.26076860       0.73374880
     9  C          0.45574000       0.81391140       0.30604120
    10  C          0.54426000       0.18608860       0.69395880
    11  H          0.37560000       0.88550000       0.27230000
    12  H          0.62440000       0.11450000       0.72770000
    13  C          0.56014000       0.78254130       0.39621110
    14  C          0.43986000       0.21745870       0.60378890
    15  C          0.67775000       0.67506140       0.44550120
    16  C          0.32225000       0.32493860       0.55449880
    17  H          0.74520000       0.65080000       0.50650000
    18  H          0.25480000       0.34920000       0.49350000
    19  C          0.69085000       0.60546140       0.40060130
    20  C          0.30915000       0.39453860       0.59939870
    21  H          0.77410000       0.53380000       0.43250000
    22  H          0.22590000       0.46620000       0.56750000
    23  C          0.36225000       0.76599170       0.16892130
    24  C          0.63775000       0.23400830       0.83107870
    25  H          0.17820000       0.72080000       0.17480000
    26  H          0.82180000       0.27920000       0.82520000
    27  H          0.55400000       0.74700000       0.13260000
    28  H          0.44600000       0.25300000       0.86740000
    29  C          0.24296000       0.88371190       0.11438150
    30  C          0.75704000       0.11628810       0.88561850
    31  H          0.18220000       0.89350000       0.05340000
    32  H          0.81780000       0.10650000       0.94660000
    33  H          0.42420000       0.92940000       0.10690000
    34  H          0.57580000       0.07060000       0.89310000
    35  H          0.04690000       0.90290000       0.14820000
    36  H          0.95310000       0.09710000       0.85180000
    37  C          0.55264000       0.86517130       0.43695110
    38  C          0.44736000       0.13482870       0.56304890
    39  H          0.40250000       0.88611800       0.54771500
    40  H          0.59750000       0.11388200       0.45228500
    41  H          0.32160000       0.77420000       0.55631700
    42  H          0.67840000       0.22580000       0.44368300
    43  F          0.14265000       0.17383120       0.04930110
    44  F          0.85735000       0.82616880       0.95069890
    45  F          0.79535000       0.36744120       0.97759100
    46  F          0.20465000       0.63255880       0.02240900
    47  O          0.87434000       0.37450110       0.35330900
    48  O          0.12566000       0.62549890       0.64669100
    49  O          0.68635000       0.50920120       0.22408110
    50  O          0.31365000       0.49079880       0.77591890
    51  C          0.90764000       0.34868130       0.21069120
    52  C          0.09236000       0.65131870       0.78930880
    53  C          0.08275000       0.24736140       0.24793130
    54  C          0.91725000       0.75263860       0.75206870
    55  H          0.14600000       0.21930000       0.30960000
    56  H          0.85400000       0.78070000       0.69040000
    57  C          0.16425000       0.18756150       0.19396150
    58  C          0.83575000       0.81243850       0.80603850
    59  H          0.28300000       0.11970000       0.21870000
    60  H          0.71700000       0.88030000       0.78130000
    61  C          0.06676000       0.23011160       0.10377150
    62  C          0.93324000       0.76988840       0.89622850
    63  C          0.89026000       0.33040160       0.06631130
    64  C          0.10974000       0.66959840       0.93368870
    65  C          0.81165000       0.39062140       0.11875130
    66  C          0.18835000       0.60937860       0.88124870
    67  H          0.69530000       0.45880000       0.09310000
    68  H          0.30470000       0.54120000       0.90690000
    69  C          0.82165000       0.41201140       0.27008130
    70  C          0.17835000       0.58798860       0.72991870
    71  H          0.65090000       0.55130000       0.26120000
    72  H          0.34910000       0.44870000       0.73880000
