data_NUGPOV
_symmetry_space_group_name_H-M    'P1'
_symmetry_Int_Tables_number       1
loop_
_symmetry_equiv_pos_site_id
_symmetry_equiv_pos_as_xyz
1 x,y,z
_cell_length_a                   7.4632
_cell_length_b                   15.2005
_cell_length_c                   18.4606
_cell_angle_alpha                95.3694
_cell_angle_beta                 90.5204
_cell_angle_gamma                92.7374
loop_
_atom_site_label
_atom_site_type_symbol
_atom_site_fract_x
_atom_site_fract_y
_atom_site_fract_z
     1  N          0.60873000       0.07738130       0.06877110
     2  N          0.39127000       0.92261870       0.93122890
     3  C          0.51193000       0.92509160       0.07518130
     4  C          0.48807000       0.07490840       0.92481870
     5  H          0.45860000       0.87190000       0.05150000
     6  H          0.54140000       0.12810000       0.94850000
     7  C          0.53193000      -0.00002840       0.03845130
     8  C          0.46807000       0.00002840       0.96154870
     9  C          0.43393000       0.63343160       0.22919140
    10  C          0.56607000       0.36656840       0.77080860
    11  H          0.40440000       0.62770000       0.17880000
    12  H          0.59560000       0.37230000       0.82120000
    13  C          0.45073000       0.57011170       0.34311140
    14  C          0.54927000       0.42988830       0.65688860
    15  H          0.43130000       0.52080000       0.37050000
    16  H          0.56870000       0.47920000       0.62950000
    17  C          0.54923000       0.72120170       0.33685140
    18  C          0.45077000       0.27879830       0.66314860
    19  H          0.59920000       0.77550000       0.35980000
    20  H          0.40080000       0.22450000       0.64020000
    21  C          0.57063000       0.92821160       0.14740130
    22  C          0.42937000       0.07178840       0.85259870
    23  C          0.66543000       0.07897160       0.13816140
    24  C          0.33457000       0.92102840       0.86183860
    25  H          0.72060000       0.13250000       0.16040000
    26  H          0.27940000       0.86750000       0.83960000
    27  C          0.40803000       0.56242160       0.26939140
    28  C          0.59197000       0.43757840       0.73060860
    29  H          0.36040000       0.50760000       0.24650000
    30  H          0.63960000       0.49240000       0.75350000
    31  C          0.54843000       0.85258160       0.18757140
    32  C          0.45157000       0.14741840       0.81242860
    33  C          0.52163000       0.64962170       0.37677140
    34  C          0.47837000       0.35037830       0.62322860
    35  H          0.55110000       0.65480000       0.42720000
    36  H          0.44890000       0.34520000       0.57280000
    37  C          0.64863000       0.00773160       0.17923140
    38  C          0.35137000      -0.00773160       0.82076860
    39  H          0.68960000       0.01290000       0.22840000
    40  H          0.31040000       0.98710000       0.77160000
    41  C          0.50413000       0.71444160       0.26284130
    42  C          0.49587000       0.28555840       0.73715870
    43  C          0.52943000       0.78946170       0.22187130
    44  C          0.47057000       0.21053830       0.77812870
    45  N          0.11413000       0.07681130       0.06739110
    46  N          0.88587000       0.92318870       0.93260890
    47  C          0.03323000       0.00064160       0.03824130
    48  C          0.96677000      -0.00064160       0.96175870
    49  C          0.05823000       0.72370160       0.33946130
    50  C          0.94177000       0.27629840       0.66053870
    51  C          0.00363000       0.71998160       0.26674130
    52  C         -0.00363000       0.28001840       0.73325870
    53  C          0.15903000       0.00860160       0.17821140
    54  C          0.84097000      -0.00860160       0.82178860
    55  H          0.20460000       0.01380000       0.22670000
    56  H          0.79540000       0.98620000       0.77330000
    57  C          0.17503000       0.07906170       0.13607140
    58  C          0.82497000       0.92093830       0.86392860
    59  H          0.23280000       0.13250000       0.15720000
    60  H          0.76720000       0.86750000       0.84280000
    61  C          0.92097000       0.64037160       0.23704130
    62  C          0.07903000       0.35962840       0.76295870
    63  C          0.94547000       0.57629160       0.34895130
    64  C          0.05453000       0.42370840       0.65104870
    65  C          0.03043000       0.79346170       0.22500130
    66  C          0.96957000       0.20653830       0.77499870
    67  C          0.01173000       0.92589160       0.07582130
    68  C         -0.01173000       0.07410840       0.92417870
    69  H          0.95530000       0.87300000       0.05300000
    70  H          0.04470000       0.12700000       0.94700000
    71  C          0.03103000       0.65337170       0.37985130
    72  C          0.96897000       0.34662830       0.62014870
    73  C          0.05123000       0.85498170       0.18939130
    74  C          0.94877000       0.14501830       0.81060870
    75  C          0.07423000       0.92956160       0.14771130
    76  C          0.92577000       0.07043840       0.85228870
    77  C          0.89277000       0.56945160       0.27688130
    78  C          0.10723000       0.43054840       0.72311870
    79  F          0.08652190       0.65801100       0.44952700
    80  F          0.91347810       0.34198900       0.55047300
    81  F          0.13812190       0.79827100       0.37141800
    82  F          0.86187810       0.20172900       0.62858200
    83  F          0.81290810       0.49379900       0.24610800
    84  F          0.18709190       0.50620100       0.75389200
    85  F          0.86419810       0.63305900       0.16794700
    86  F          0.13580190       0.36694100       0.83205300
    87  F          0.91285810       0.50877900       0.38924800
    88  F          0.08714190       0.49122100       0.61075200
    89  N          0.88237000       0.40296130       0.95535900
    90  N          0.11763000       0.59703870       0.04464100
    91  C          0.96817000       0.45492150       0.00875130
    92  C          0.03183000       0.54507850       0.99124870
    93  C          0.82927000       0.32116160       0.96964870
    94  C          0.17073000       0.67883840       0.03035130
    95  H          0.77000000       0.28380000       0.93180000
    96  H          0.23000000       0.71620000       0.06820000
    97  C          0.94207000       0.34175160       0.09142130
    98  C          0.05793000       0.65824840       0.90857870
    99  C          0.04293000       0.27104160       0.29414130
   100  C          0.95707000       0.72895840       0.70585870
   101  C          0.00213000       0.29011160       0.22162130
   102  C         -0.00213000       0.70988840       0.77837870
   103  C          0.12843000       0.33471160       0.34295130
   104  C          0.87157000       0.66528840       0.65704870
   105  C          0.16943000       0.31937170       0.41337130
   106  C          0.83057000       0.68062830       0.58662870
   107  C         -0.00123000       0.18968160       0.32040130
   108  C          0.00123000       0.81031840       0.67959870
   109  C          0.85497000       0.28735160       0.03571130
   110  C          0.14503000       0.71264840       0.96428870
   111  H          0.81440000       0.22870000       0.04290000
   112  H          0.18560000       0.77130000       0.95710000
   113  C          0.04053000       0.17283160       0.39011130
   114  C          0.95947000       0.82716840       0.60988870
   115  C          0.00023000       0.42716160       0.07741130
   116  C         -0.00023000       0.57283840       0.92258870
   117  H          0.06060000       0.46580000       0.11410000
   118  H          0.93940000       0.53420000       0.88590000
   119  C          0.97367000       0.31227160       0.16223140
   120  C          0.02633000       0.68772840       0.83776860
   121  C          0.12673000       0.23765170       0.43669130
   122  C          0.87327000       0.76234830       0.56330870
   123  F          0.17538190       0.41394900       0.32072800
   124  F          0.82461810       0.58605100       0.67927200
   125  F         -0.00232000       0.09379900       0.41295800
   126  F          0.00232000       0.90620100       0.58704200
   127  F          0.16972000       0.22119100       0.50462700
   128  F          0.83028000       0.77880900       0.49537300
   129  F          0.25057190       0.38343100       0.45882800
   130  F          0.74942810       0.61656900       0.54117200
   131  F          0.91428820       0.12555900       0.27646700
   132  F          0.08571180       0.87444100       0.72353300
   133  N          0.39513000       0.40067130       0.95406900
   134  N          0.60487000       0.59932870       0.04593100
   135  C          0.54093000       0.27328160       0.29548120
   136  C          0.45907000       0.72671840       0.70451880
   137  C          0.61763000       0.33935160       0.34519130
   138  C          0.38237000       0.66064840       0.65480870
   139  H          0.64480000       0.39660000       0.33040000
   140  H          0.35520000       0.60340000       0.66960000
   141  C          0.65443000       0.32221170       0.41598130
   142  C          0.34557000       0.67778830       0.58401870
   143  H          0.70560000       0.36770000       0.44970000
   144  H          0.29440000       0.63230000       0.55030000
   145  C          0.54133000       0.17222170       0.38851140
   146  C          0.45867000       0.82777830       0.61148860
   147  H          0.51540000       0.11490000       0.40350000
   148  H          0.48460000       0.88510000       0.59650000
   149  C          0.61633000       0.23849170       0.43754130
   150  C          0.38367000       0.76150830       0.56245870
   151  H          0.64190000       0.22660000       0.48610000
   152  H          0.35810000       0.77340000       0.51390000
   153  C          0.47123000       0.45473150       0.00861130
   154  C          0.52877000       0.54526850       0.99138870
   155  C          0.50373000       0.18905160       0.31768130
   156  C          0.49627000       0.81094840       0.68231870
   157  H          0.45250000       0.14330000       0.28420000
   158  H          0.54750000       0.85670000       0.71580000
   159  C          0.49743000       0.42867150       0.07817120
   160  C          0.50257000       0.57132850       0.92182880
   161  H          0.55180000       0.46860000       0.11550000
   162  H          0.44820000       0.53140000       0.88450000
   163  C          0.36183000       0.28696160       0.03562130
   164  C          0.63817000       0.71303840       0.96437870
   165  H          0.32150000       0.22830000       0.04320000
   166  H          0.67850000       0.77170000       0.95680000
   167  C          0.50163000       0.29326160       0.22265130
   168  C          0.49837000       0.70673840       0.77734870
   169  C          0.47203000       0.31428150       0.16286130
   170  C          0.52797000       0.68571850       0.83713870
   171  C          0.34183000       0.31895160       0.96850870
   172  C          0.65817000       0.68104840       0.03149130
   173  H          0.28680000       0.28050000       0.93030000
   174  H          0.71320000       0.71950000       0.06970000
   175  C          0.44253000       0.34296150       0.09193120
   176  C          0.55747000       0.65703850       0.90806880
   177  C          0.32324000       0.98075190       0.47958180
   178  C          0.67676000       0.01924810       0.52041820
   179  H          0.20140000       0.96750000       0.46550000
   180  H          0.79860000       0.03250000       0.53450000
   181  C          0.36424000       0.03637190       0.54115190
   182  C          0.63576000       0.96362810       0.45884810
   183  H          0.27080000       0.06150000       0.56960000
   184  H          0.72920000       0.93850000       0.43040000
   185  C          0.45814000       0.94420190       0.43829180
   186  C          0.54186000       0.05579810       0.56170820
   187  H          0.42960000       0.90570000       0.39580000
   188  H          0.57040000       0.09430000       0.60420000
