data_NUGZOF
_symmetry_space_group_name_H-M    'P1'
_symmetry_Int_Tables_number       1
loop_
_symmetry_equiv_pos_site_id
_symmetry_equiv_pos_as_xyz
1 x,y,z
_cell_length_a                   17.563813
_cell_length_b                   7.37106
_cell_length_c                   14.486611
_cell_angle_alpha                90.0
_cell_angle_beta                 93.01001
_cell_angle_gamma                90.0
loop_
_atom_site_label
_atom_site_type_symbol
_atom_site_fract_x
_atom_site_fract_y
_atom_site_fract_z
     1  O          0.27304700       0.67571820       0.00052900
     2  O          0.72695300       0.17571820       0.49947100
     3  O          0.72695300       0.32428180      -0.00052900
     4  O          0.27304700       0.82428180       0.50052900
     5  O          0.32301700       0.93190830       0.94745900
     6  O          0.67698300       0.43190830       0.55254100
     7  O          0.67698300       0.06809170       0.05254100
     8  O          0.32301700       0.56809170       0.44745900
     9  H          0.35870000       0.86460000       0.93680000
    10  H          0.64130000       0.36460000       0.56320000
    11  H          0.64130000       0.13540000       0.06320000
    12  H          0.35870000       0.63540000       0.43680000
    13  O          0.01481700       0.68628820       0.09825110
    14  O          0.98518300       0.18628820       0.40174890
    15  O          0.98518300       0.31371180       0.90174890
    16  O          0.01481700       0.81371180       0.59825110
    17  H          0.97510000       0.64000000       0.11420000
    18  H          0.02490000       0.14000000       0.38580000
    19  H          0.02490000       0.36000000       0.88580000
    20  H          0.97510000       0.86000000       0.61420000
    21  O          0.96262200       0.93729820       0.15351110
    22  O          0.03737800       0.43729820       0.34648890
    23  O          0.03737800       0.06270180       0.84648890
    24  O          0.96262200       0.56270180       0.65351110
    25  N          0.16817900       0.41722000       0.10274120
    26  N          0.83182100       0.91722000       0.39725880
    27  N          0.83182100       0.58278000       0.89725880
    28  N          0.16817900       0.08278000       0.60274120
    29  H          0.12450000       0.47690000       0.11200000
    30  H          0.87550000       0.97690000       0.38800000
    31  H          0.87550000       0.52310000       0.88800000
    32  H          0.12450000       0.02310000       0.61200000
    33  H          0.19770000       0.47470000       0.06310000
    34  H          0.80230000       0.97470000       0.43690000
    35  H          0.80230000       0.52530000       0.93690000
    36  H          0.19770000       0.02530000       0.56310000
    37  C          0.27107100       0.84047000       0.98897880
    38  C          0.72892900       0.34047000       0.51102120
    39  C          0.72892900       0.15953000       0.01102120
    40  C          0.27107100       0.65953000       0.48897880
    41  C          0.20733100       0.95218000       0.02357120
    42  C          0.79266900       0.45218000       0.47642880
    43  C          0.79266900       0.04782000       0.97642880
    44  C          0.20733100       0.54782000       0.52357120
    45  C          0.14100100       0.86478000       0.04533120
    46  C          0.85899900       0.36478000       0.45466880
    47  C          0.85899900       0.13522000       0.95466880
    48  C          0.14100100       0.63522000       0.54533120
    49  H          0.13490000       0.74210000       0.03200000
    50  H          0.86510000       0.24210000       0.46800000
    51  H          0.86510000       0.25790000       0.96800000
    52  H          0.13490000       0.75790000       0.53200000
    53  C          0.08377100       0.95808000       0.08676130
    54  C          0.91622900       0.45808000       0.41323870
    55  C          0.91622900       0.04192000       0.91323870
    56  C          0.08377100       0.54192000       0.58676130
    57  C          0.01389100       0.86187000       0.11610130
    58  C          0.98610900       0.36187000       0.38389870
    59  C          0.98610900       0.13813000       0.88389870
    60  C          0.01389100       0.63813000       0.61610130
    61  C          0.09269100       0.14162000       0.10479130
    62  C          0.90730900       0.64162000       0.39520870
    63  C          0.90730900       0.85838000       0.89520870
    64  C          0.09269100       0.35838000       0.60479130
    65  H          0.05450000       0.20440000       0.13350000
    66  H          0.94550000       0.70440000       0.36650000
    67  H          0.94550000       0.79560000       0.86650000
    68  H          0.05450000       0.29560000       0.63350000
    69  C          0.15780100       0.23342000       0.08062130
    70  C          0.84219900       0.73342000       0.41937870
    71  C          0.84219900       0.76658000       0.91937870
    72  C          0.15780100       0.26658000       0.58062130
    73  C          0.21553100       0.13652000       0.03995120
    74  C          0.78446900       0.63652000       0.46004880
    75  C          0.78446900       0.86348000       0.96004880
    76  C          0.21553100       0.36348000       0.53995120
    77  H          0.25960000       0.19580000       0.02380000
    78  H          0.74040000       0.69580000       0.47620000
    79  H          0.74040000       0.80420000       0.97620000
    80  H          0.25960000       0.30420000       0.52380000
    81  N          0.43487900       0.72252000       0.90969110
    82  N          0.56512100       0.22252000       0.59030890
    83  N          0.56512100       0.27748000       0.09030890
    84  N          0.43487900       0.77748000       0.40969110
    85  N          0.58631800       0.16682000       0.84415110
    86  N          0.41368200       0.66682000       0.65584890
    87  N          0.41368200       0.83318000       0.15584890
    88  N          0.58631800       0.33318000       0.34415110
    89  N          0.64609800       0.07022000       0.81131110
    90  N          0.35390200       0.57022000       0.68868890
    91  N          0.35390200       0.92978000       0.18868890
    92  N          0.64609800       0.42978000       0.31131110
    93  N          0.66564800       0.35906190       0.78559100
    94  N          0.33435200       0.85906190       0.71440900
    95  N          0.33435200       0.64093810       0.21440900
    96  N          0.66564800       0.14093810       0.28559100
    97  N          0.69460800       0.52526190       0.75480110
    98  N          0.30539200       0.02526190       0.74519890
    99  N          0.30539200       0.47473810       0.24519890
   100  N          0.69460800       0.97473810       0.25480110
   101  H          0.69940000       0.52040000       0.69330000
   102  H          0.30060000       0.02040000       0.80670000
   103  H          0.30060000       0.47960000       0.30670000
   104  H          0.69940000       0.97960000       0.19330000
   105  H          0.73570000       0.57310000       0.78540000
   106  H          0.26430000       0.07310000       0.71460000
   107  H          0.26430000       0.42690000       0.21460000
   108  H          0.73570000       0.92690000       0.28540000
   109  N          0.89049900      -0.01872000       0.65239110
   110  N          0.10950100       0.48128000       0.84760890
   111  N          0.10950100       0.01872000       0.34760890
   112  N          0.89049900       0.51872000       0.15239110
   113  C          0.54470100       0.48062000       0.85433120
   114  C          0.45529900       0.98062000       0.64566880
   115  C          0.45529900       0.51938000       0.14566880
   116  C          0.54470100       0.01938000       0.35433120
   117  C          0.47304100       0.42113000       0.87930130
   118  C          0.52695900       0.92113000       0.62069870
   119  C          0.52695900       0.57887000       0.12069870
   120  C          0.47304100       0.07887000       0.37930130
   121  H          0.46100000       0.29830000       0.87730000
   122  H          0.53900000       0.79830000       0.62270000
   123  H          0.53900000       0.70170000       0.12270000
   124  H          0.46100000       0.20170000       0.37730000
   125  C          0.42070100       0.54523000       0.90669130
   126  C          0.57929900       0.04523000       0.59330870
   127  C          0.57929900       0.45477000       0.09330870
   128  C          0.42070100       0.95477000       0.40669130
   129  H          0.37340000       0.50390000       0.92390000
   130  H          0.62660000       0.00390000       0.57610000
   131  H          0.62660000       0.49610000       0.07610000
   132  H          0.37340000      -0.00390000       0.42390000
   133  C          0.50336110       0.78043000       0.88599140
   134  C          0.49663890       0.28043000       0.61400860
   135  C          0.49663890       0.21957000       0.11400860
   136  C          0.50336110       0.71957000       0.38599140
   137  H          0.51350000       0.90420000       0.88800000
   138  H          0.48650000       0.40420000       0.61200000
   139  H          0.48650000       0.09580000       0.11200000
   140  H          0.51350000       0.59580000       0.38800000
   141  C          0.55924100       0.66493000       0.85883130
   142  C          0.44075900       0.16493000       0.64116870
   143  C          0.44075900       0.33507000       0.14116870
   144  C          0.55924100       0.83507000       0.35883130
   145  H          0.60640000       0.71010000       0.84360000
   146  H          0.39360000       0.21010000       0.65640000
   147  H          0.39360000       0.28990000       0.15640000
   148  H          0.60640000       0.78990000       0.34360000
   149  C          0.59868100       0.33992000       0.82768120
   150  C          0.40131900       0.83992000       0.67231880
   151  C          0.40131900       0.66008000       0.17231880
   152  C          0.59868100       0.16008000       0.32768120
   153  C          0.69311100       0.18672000       0.77642120
   154  C          0.30688900       0.68672000       0.72357880
   155  C          0.30688900       0.81328000       0.22357880
   156  C          0.69311100       0.31328000       0.27642120
   157  C          0.76247100       0.12622000       0.73245120
   158  C          0.23752900       0.62622000       0.76754880
   159  C          0.23752900       0.87378000       0.26754880
   160  C          0.76247100       0.37378000       0.23245120
   161  C          0.82442100       0.23452000       0.71331130
   162  C          0.17557900       0.73452000       0.78668870
   163  C          0.17557900       0.76548000       0.28668870
   164  C          0.82442100       0.26548000       0.21331130
   165  H          0.82420000       0.35780000       0.72710000
   166  H          0.17580000       0.85780000       0.77290000
   167  H          0.17580000       0.64220000       0.27290000
   168  H          0.82420000       0.14220000       0.22710000
   169  C          0.88634110       0.15673000       0.67348130
   170  C          0.11365890       0.65673000       0.82651870
   171  C          0.11365890       0.84327000       0.32651870
   172  C          0.88634110       0.34327000       0.17348130
   173  H          0.92730000       0.23090000       0.66070000
   174  H          0.07270000       0.73090000       0.83930000
   175  H          0.07270000       0.76910000       0.33930000
   176  H          0.92730000       0.26910000       0.16070000
   177  C          0.83103110       0.87817000       0.67087130
   178  C          0.16896890       0.37817000       0.82912870
   179  C          0.16896890       0.12183000       0.32912870
   180  C          0.83103110       0.62183000       0.17087130
   181  H          0.83320000       0.75510000       0.65720000
   182  H          0.16680000       0.25510000       0.84280000
   183  H          0.16680000       0.24490000       0.34280000
   184  H          0.83320000       0.74490000       0.15720000
   185  C          0.76670100       0.94398000       0.70910130
   186  C          0.23329900       0.44398000       0.79089870
   187  C          0.23329900       0.05602000       0.29089870
   188  C          0.76670100       0.55602000       0.20910130
   189  H          0.72610000       0.86680000       0.71930000
   190  H          0.27390000       0.36680000       0.78070000
   191  H          0.27390000       0.13320000       0.28070000
   192  H          0.72610000       0.63320000       0.21930000
