data_NUHBAU
_symmetry_space_group_name_H-M    'P1'
_symmetry_Int_Tables_number       1
loop_
_symmetry_equiv_pos_site_id
_symmetry_equiv_pos_as_xyz
1 x,y,z
_cell_length_a                   7.34547
_cell_length_b                   37.5223
_cell_length_c                   8.54418
_cell_angle_alpha                90.0
_cell_angle_beta                 113.35001
_cell_angle_gamma                90.0
loop_
_atom_site_label
_atom_site_type_symbol
_atom_site_fract_x
_atom_site_fract_y
_atom_site_fract_z
     1  O          0.87612000       0.30544400       0.54899180
     2  O          0.12388000       0.80544400       0.95100820
     3  O          0.12388000       0.69455600       0.45100820
     4  O          0.87612000       0.19455600       0.04899180
     5  O          0.85412000       0.24702300       0.50116160
     6  O          0.14588000       0.74702300      -0.00116160
     7  O          0.14588000       0.75297700       0.49883840
     8  O          0.85412000       0.25297700       0.00116160
     9  H          0.94340000       0.24640000       0.59670000
    10  H          0.05660000       0.74640000       0.90330000
    11  H          0.05660000       0.75360000       0.40330000
    12  H          0.94340000       0.25360000       0.09670000
    13  O          0.32712000       0.19605300       0.02139160
    14  O          0.67288000       0.69605300       0.47860840
    15  O          0.67288000       0.80394700       0.97860840
    16  O          0.32712000       0.30394700       0.52139160
    17  H          0.25830000       0.17980000       0.96350000
    18  H          0.74170000       0.67980000       0.53650000
    19  H          0.74170000       0.82020000       0.03650000
    20  H          0.25830000       0.32020000       0.46350000
    21  O          0.13253180       0.22838300       0.80315850
    22  O          0.86746820       0.72838300       0.69684150
    23  O          0.86746820       0.77161700       0.19684150
    24  O          0.13253180       0.27161700       0.30315850
    25  O          0.18932000       0.36005300       0.86184820
    26  O          0.81068000       0.86005300       0.63815180
    27  O          0.81068000       0.63994700       0.13815180
    28  O          0.18932000       0.13994700       0.36184820
    29  H          0.15380000       0.38090000       0.84440000
    30  H          0.84620000       0.88090000       0.65560000
    31  H          0.84620000       0.61910000       0.15560000
    32  H          0.15380000       0.11910000       0.34440000
    33  O          0.45862000       0.38405300       0.05737190
    34  O          0.54138000       0.88405300       0.44262810
    35  O          0.54138000       0.61594700       0.94262810
    36  O          0.45862000       0.11594700       0.55737190
    37  C          0.80062000       0.28038500       0.45882000
    38  C          0.19938000       0.78038500       0.04118000
    39  C          0.19938000       0.71961500       0.54118000
    40  C          0.80062000       0.21961500       0.95882000
    41  C          0.63462000       0.28376400       0.28672000
    42  C          0.36538000       0.78376400       0.21328000
    43  C          0.36538000       0.71623600       0.71328000
    44  C          0.63462000       0.21623600       0.78672000
    45  C          0.57602000       0.31747400       0.21842000
    46  C          0.42398000       0.81747400       0.28158000
    47  C          0.42398000       0.68252600       0.78158000
    48  C          0.57602000       0.18252600       0.71842000
    49  H          0.64290000       0.33750000       0.27790000
    50  H          0.35710000       0.83750000       0.22210000
    51  H          0.35710000       0.66250000       0.72210000
    52  H          0.64290000       0.16250000       0.77790000
    53  C          0.41793000       0.32154400       0.06172000
    54  C          0.58207000       0.82154400       0.43828000
    55  C          0.58207000       0.67845600       0.93828000
    56  C          0.41793000       0.17845600       0.56172000
    57  C          0.35863000       0.35816400      -0.00552000
    58  C          0.64137000       0.85816400       0.50552000
    59  C          0.64137000       0.64183600       0.00552000
    60  C          0.35863000       0.14183600       0.49448000
    61  C          0.31752000       0.29162400       0.97228000
    62  C          0.68248000       0.79162400       0.52772000
    63  C          0.68248000       0.70837600       0.02772000
    64  C          0.31752000       0.20837600       0.47228000
    65  H          0.21090000       0.29420000       0.86790000
    66  H          0.78910000       0.79420000       0.63210000
    67  H          0.78910000       0.70580000       0.13210000
    68  H          0.21090000       0.20580000       0.36790000
    69  C          0.37722000       0.25790400       0.03972000
    70  C          0.62278000       0.75790400       0.46028000
    71  C          0.62278000       0.74209600       0.96028000
    72  C          0.37722000       0.24209600       0.53972000
    73  C          0.26762000       0.22598400       0.94358000
    74  C          0.73238000       0.72598400       0.55642000
    75  C          0.73238000       0.77401600       0.05642000
    76  C          0.26762000       0.27401600       0.44358000
    77  C          0.53532000       0.25408400       0.19642000
    78  C          0.46468000       0.75408400       0.30358000
    79  C          0.46468000       0.74591600       0.80358000
    80  C          0.53532000       0.24591600       0.69642000
    81  H          0.57480000       0.23140000       0.24110000
    82  H          0.42520000       0.73140000       0.25890000
    83  H          0.42520000       0.76860000       0.75890000
    84  H          0.57480000       0.26860000       0.74110000
    85  O          0.06172000       0.42522300       0.78777190
    86  O          0.93828000       0.92522300       0.71222810
    87  O          0.93828000       0.57477700       0.21222810
    88  O          0.06172000       0.07477700       0.28777190
    89  H          0.95630000       0.42900000       0.69990000
    90  H          0.04370000       0.92900000       0.80010000
    91  H          0.04370000       0.57100000       0.30010000
    92  H          0.95630000       0.07100000       0.19990000
    93  H          0.11740000       0.44320000       0.84840000
    94  H          0.88260000       0.94320000       0.65160000
    95  H          0.88260000       0.55680000       0.15160000
    96  H          0.11740000       0.05680000       0.34840000
    97  O          0.66303000       0.35680500       0.67433000
    98  O          0.33697000       0.85680500       0.82567000
    99  O          0.33697000       0.64319500       0.32567000
   100  O          0.66303000       0.14319500       0.17433000
   101  H          0.76220000       0.34870000       0.65790000
   102  H          0.23780000       0.84870000       0.84210000
   103  H          0.23780000       0.65130000       0.34210000
   104  H          0.76220000       0.15130000       0.15790000
   105  H          0.56960000       0.34230000       0.66220000
   106  H          0.43040000       0.84230000       0.83780000
   107  H          0.43040000       0.65770000       0.33780000
   108  H          0.56960000       0.15770000       0.16220000
   109  N          0.12362000       0.14407400       0.85002000
   110  N          0.87638000       0.64407400       0.64998000
   111  N          0.87638000       0.85592600       0.14998000
   112  N          0.12362000       0.35592600       0.35002000
   113  N          0.90692000       0.01959400       0.65458180
   114  N          0.09308000       0.51959400       0.84541820
   115  N          0.09308000       0.98040600       0.34541820
   116  N          0.90692000       0.48040600       0.15458180
   117  N          0.79612000       0.99389600       0.54362180
   118  N          0.20388000       0.49389600       0.95637820
   119  N          0.20388000       0.00610400       0.45637820
   120  N          0.79612000       0.50610400       0.04362180
   121  N          0.69332000       0.04587300       0.42849160
   122  N          0.30668000       0.54587300       0.07150840
   123  N          0.30668000       0.95412700       0.57150840
   124  N          0.69332000       0.45412700       0.92849160
   125  N          0.57312000       0.07168400       0.31397190
   126  N          0.42688000       0.57168400       0.18602810
   127  N          0.42688000       0.92831600       0.68602810
   128  N          0.57312000       0.42831600       0.81397190
   129  H          0.52770000       0.08600000       0.37500000
   130  H          0.47230000       0.58600000       0.12500000
   131  H          0.47230000       0.91400000       0.62500000
   132  H          0.52770000       0.41400000       0.87500000
   133  H          0.65360000       0.08310000       0.27370000
   134  H          0.34640000       0.58310000       0.22630000
   135  H          0.34640000       0.91690000       0.72630000
   136  H          0.65360000       0.41690000       0.77370000
   137  N          0.26702000       0.94997600      -0.01042190
   138  N          0.73298000       0.44997600       0.51042190
   139  N          0.73298000       0.05002400       0.01042190
   140  N          0.26702000       0.55002400       0.48957810
   141  C          0.01593000       0.14579500       0.68353000
   142  C         -0.01593000       0.64579500       0.81647000
   143  C         -0.01593000       0.85420500       0.31647000
   144  C          0.01593000       0.35420500       0.18353000
   145  H          0.00530000       0.16760000       0.62860000
   146  H         -0.00530000       0.66760000       0.87140000
   147  H         -0.00530000       0.83240000       0.37140000
   148  H          0.00530000       0.33240000       0.12860000
   149  C          0.91913000       0.11663500       0.58842000
   150  C          0.08087000       0.61663500       0.91158000
   151  C          0.08087000       0.88336500       0.41158000
   152  C          0.91913000       0.38336500       0.08842000
   153  H          0.84580000       0.11870000       0.47170000
   154  H          0.15420000       0.61870000       0.02830000
   155  H          0.15420000       0.88130000       0.52830000
   156  H          0.84580000       0.38130000       0.97170000
   157  C          0.93292000       0.08421400       0.66942000
   158  C          0.06708000       0.58421400       0.83058000
   159  C          0.06708000       0.91578600       0.33058000
   160  C          0.93292000       0.41578600       0.16942000
   161  C          0.04343000       0.08289500       0.84422000
   162  C          0.95657000       0.58289500       0.65578000
   163  C          0.95657000       0.91710500       0.15578000
   164  C          0.04343000       0.41710500       0.34422000
   165  H          0.05460000       0.06170000       0.90340000
   166  H          0.94540000       0.56170000       0.59660000
   167  H          0.94540000       0.93830000       0.09660000
   168  H          0.05460000       0.43830000       0.40340000
   169  C          0.13563000       0.11307500       0.92852000
   170  C          0.86437000       0.61307500       0.57148000
   171  C          0.86437000       0.88692500       0.07148000
   172  C          0.13563000       0.38692500       0.42852000
   173  H          0.20960000       0.11180000       0.04540000
   174  H          0.79040000       0.61180000       0.45460000
   175  H          0.79040000       0.88820000       0.95460000
   176  H          0.20960000       0.38820000       0.54540000
   177  C          0.84472000       0.05070400       0.58452000
   178  C          0.15528000       0.55070400       0.91548000
   179  C          0.15528000       0.94929600       0.41548000
   180  C          0.84472000       0.44929600       0.08452000
   181  C          0.66752000       0.00996400       0.40812000
   182  C          0.33248000       0.50996400       0.09188000
   183  C          0.33248000       0.99003600       0.59188000
   184  C          0.66752000       0.49003600       0.90812000
   185  C          0.52562000       0.99042600       0.26122000
   186  C          0.47438000       0.49042600       0.23878000
   187  C          0.47438000       0.00957400       0.73878000
   188  C          0.52562000       0.50957400       0.76122000
   189  C          0.36543000       0.00601500       0.13262000
   190  C          0.63457000       0.50601500       0.36738000
   191  C          0.63457000       0.99398500       0.86738000
   192  C          0.36543000       0.49398500       0.63262000
   193  H          0.34080000       0.03030000       0.13480000
   194  H          0.65920000       0.53030000       0.36520000
   195  H          0.65920000       0.96970000       0.86520000
   196  H          0.34080000       0.46970000       0.63480000
   197  C          0.24263000       0.98491500       0.00112000
   198  C          0.75737000       0.48491500       0.49888000
   199  C          0.75737000       0.01508500      -0.00112000
   200  C          0.24263000       0.51508500       0.50112000
   201  H          0.13590000       0.99580000       0.91490000
   202  H          0.86410000       0.49580000       0.58510000
   203  H          0.86410000       0.00420000       0.08510000
   204  H          0.13590000       0.50420000       0.41490000
   205  C          0.42073000       0.93524500       0.11492000
   206  C          0.57927000       0.43524500       0.38508000
   207  C          0.57927000       0.06475500       0.88508000
   208  C          0.42073000       0.56475500       0.61492000
   209  H          0.44060000       0.91090000       0.11030000
   210  H          0.55940000       0.41090000       0.38970000
   211  H          0.55940000       0.08910000       0.88970000
   212  H          0.44060000       0.58910000       0.61030000
   213  C          0.55233000       0.95414500       0.25112000
   214  C          0.44767000       0.45414500       0.24888000
   215  C          0.44767000       0.04585500       0.74888000
   216  C          0.55233000       0.54585500       0.75112000
   217  H          0.65790000       0.94260000       0.33540000
   218  H          0.34210000       0.44260000       0.16460000
   219  H          0.34210000       0.05740000       0.66460000
   220  H          0.65790000       0.55740000       0.83540000
