data_NUHTUI
_symmetry_space_group_name_H-M    'P1'
_symmetry_Int_Tables_number       1
loop_
_symmetry_equiv_pos_site_id
_symmetry_equiv_pos_as_xyz
1 x,y,z
_cell_length_a                   7.31974
_cell_length_b                   17.60671
_cell_length_c                   9.60035
_cell_angle_alpha                90.0
_cell_angle_beta                 110.7372
_cell_angle_gamma                90.0
loop_
_atom_site_label
_atom_site_type_symbol
_atom_site_fract_x
_atom_site_fract_y
_atom_site_fract_z
     1  S          0.37688600       0.37281200       0.38369500
     2  S          0.62311400       0.87281200       0.11630500
     3  S          0.62311400       0.62718800       0.61630500
     4  S          0.37688600       0.12718800       0.88369500
     5  C          0.41852000       0.38380900       0.21561180
     6  C          0.58148000       0.88380900       0.28438820
     7  C          0.58148000       0.61619100       0.78438820
     8  C          0.41852000       0.11619100       0.71561180
     9  C          0.38682000       0.32269100       0.11612000
    10  C          0.61318000       0.82269100       0.38388000
    11  C          0.61318000       0.67730900       0.88388000
    12  C          0.38682000       0.17730900       0.61612000
    13  H          0.35650000       0.27430000       0.14590000
    14  H          0.64350000       0.77430000       0.35410000
    15  H          0.64350000       0.72570000       0.85410000
    16  H          0.35650000       0.22570000       0.64590000
    17  C          0.39803000       0.33050100       0.97578000
    18  C          0.60197000       0.83050100       0.52422000
    19  C          0.60197000       0.66949900       0.02422000
    20  C          0.39803000       0.16949900       0.47578000
    21  H          0.37690000       0.28740000       0.91250000
    22  H          0.62310000       0.78740000       0.58750000
    23  H          0.62310000       0.71260000       0.08750000
    24  H          0.37690000       0.21260000       0.41250000
    25  C          0.43972000       0.40027100       0.92579810
    26  C          0.56028000       0.90027100       0.57420190
    27  C          0.56028000       0.59972900       0.07420190
    28  C          0.43972000       0.09972900       0.42579810
    29  C          0.47952000       0.46379900       0.02495180
    30  C          0.52048000       0.96379900       0.47504820
    31  C          0.52048000       0.53620100       0.97504820
    32  C          0.47952000       0.03620100       0.52495180
    33  C          0.47332000       0.45431900       0.17062180
    34  C          0.52668000       0.95431900       0.32937820
    35  C          0.52668000       0.54568100       0.82937820
    36  C          0.47332000       0.04568100       0.67062180
    37  C          0.51932000       0.51944100       0.26849190
    38  C          0.48068000       0.01944100       0.23150810
    39  C          0.48068000       0.48055900       0.73150810
    40  C          0.51932000       0.98055900       0.76849190
    41  H          0.52140000       0.51430000       0.36750000
    42  H          0.47860000       0.01430000       0.13250000
    43  H          0.47860000       0.48570000       0.63250000
    44  H          0.52140000       0.98570000       0.86750000
    45  C          0.55942000       0.58777900       0.22112000
    46  C          0.44058000       0.08777900       0.27888000
    47  C          0.44058000       0.41222100       0.77888000
    48  C          0.55942000       0.91222100       0.72112000
    49  H          0.58810000       0.62940000       0.28830000
    50  H          0.41190000       0.12940000       0.21170000
    51  H          0.41190000       0.37060000       0.71170000
    52  H          0.58810000       0.87060000       0.78830000
    53  N          0.91212000       0.29048100       0.25359170
    54  N          0.08788000       0.79048100       0.24640830
    55  N          0.08788000       0.70951900       0.74640830
    56  N          0.91212000       0.20951900       0.75359170
    57  H          0.82720000       0.32141000       0.19720000
    58  H          0.17280000       0.82141000       0.30280000
    59  H          0.17280000       0.67859000       0.80280000
    60  H          0.82720000       0.17859000       0.69720000
    61  H          0.02931400       0.30631200       0.27220000
    62  H          0.97068600       0.80631200       0.22780000
    63  H          0.97068600       0.69368800       0.72780000
    64  H          0.02931400       0.19368800       0.77220000
    65  N          0.83022000       0.35476900       0.60368160
    66  N          0.16978000       0.85476900       0.89631840
    67  N          0.16978000       0.64523100       0.39631840
    68  N          0.83022000       0.14523100       0.10368160
    69  H          0.68558000       0.35851100       0.56020000
    70  H          0.31442000       0.85851100       0.93980000
    71  H          0.31442000       0.64148900       0.43980000
    72  H          0.68558000       0.14148900       0.06020000
    73  H          0.86330000       0.30556000       0.65741900
    74  H          0.13670000       0.80556000       0.84258100
    75  H          0.13670000       0.69444000       0.34258100
    76  H          0.86330000       0.19444000       0.15741900
    77  H          0.87830000       0.39768000       0.67511700
    78  H          0.12170000       0.89768000       0.82488300
    79  H          0.12170000       0.60232000       0.32488300
    80  H          0.87830000       0.10232000       0.17511700
    81  C          0.90883000       0.35906100       0.48047190
    82  C          0.09117000       0.85906100       0.01952810
    83  C          0.09117000       0.64093900       0.51952810
    84  C          0.90883000       0.14093900       0.98047190
    85  H          0.05100000       0.36920000       0.52230000
    86  H          0.94900000       0.86920000       0.97770000
    87  H          0.94900000       0.63080000       0.47770000
    88  H          0.05100000       0.13080000       0.02230000
    89  H          0.84550000       0.40160000       0.41320000
    90  H          0.15450000       0.90160000       0.08680000
    91  H          0.15450000       0.59840000       0.58680000
    92  H          0.84550000       0.09840000       0.91320000
    93  C          0.87223000       0.28542100       0.39244190
    94  C          0.12777000       0.78542100       0.10755810
    95  C          0.12777000       0.71457900       0.60755810
    96  C          0.87223000       0.21457900       0.89244190
    97  H          0.95540000       0.24510000       0.45550000
    98  H          0.04460000       0.74510000       0.04450000
    99  H          0.04460000       0.75490000       0.54450000
   100  H          0.95540000       0.25490000       0.95550000
   101  H          0.73420000       0.27030000       0.36870000
   102  H          0.26580000       0.77030000       0.13130000
   103  H          0.26580000       0.72970000       0.63130000
   104  H          0.73420000       0.22970000       0.86870000
   105  N          0.97093000       0.48033100       0.79701180
   106  N          0.02907000       0.98033100       0.70298820
   107  N          0.02907000       0.51966900       0.20298820
   108  N          0.97093000       0.01966900       0.29701180
   109  H          0.89130000       0.51581300       0.75720000
   110  H          0.10870000       0.01581300       0.74280000
   111  H          0.10870000       0.48418700       0.24280000
   112  H          0.89130000       0.98418700       0.25720000
   113  H          0.09230000       0.49391200       0.79820000
   114  H          0.90770000      -0.00608800       0.70180000
   115  H          0.90770000       0.50608800       0.20180000
   116  H          0.09230000       0.00608800       0.29820000
   117  C         -0.02488000       0.46562100       0.94879190
   118  C          0.02488000       0.96562100       0.55120810
   119  C          0.02488000       0.53437900       0.05120810
   120  C         -0.02488000       0.03437900       0.44879190
   121  H          0.07230000       0.42520000      -0.00620000
   122  H          0.92770000       0.92520000       0.50620000
   123  H          0.92770000       0.57480000       0.00620000
   124  H          0.07230000       0.07480000       0.49380000
   125  H          0.84570000       0.44610000       0.94270000
   126  H          0.15430000       0.94610000       0.55730000
   127  H          0.15430000       0.55390000       0.05730000
   128  H          0.84570000       0.05390000       0.44270000
