data_NUJLAI
_symmetry_space_group_name_H-M    'P1'
_symmetry_Int_Tables_number       1
loop_
_symmetry_equiv_pos_site_id
_symmetry_equiv_pos_as_xyz
1 x,y,z
_cell_length_a                   17.1935
_cell_length_b                   3.81381
_cell_length_c                   29.6891
_cell_angle_alpha                90.0
_cell_angle_beta                 90.25513
_cell_angle_gamma                90.0
loop_
_atom_site_label
_atom_site_type_symbol
_atom_site_fract_x
_atom_site_fract_y
_atom_site_fract_z
     1  N          0.32811800       0.85994000       0.28961500
     2  N          0.17188200       0.85994000       0.71038500
     3  N          0.82811800       0.35994000       0.78961500
     4  N          0.67188200       0.35994000       0.21038500
     5  N          0.67188200       0.14006000       0.71038500
     6  N          0.82811800       0.14006000       0.28961500
     7  N          0.17188200       0.64006000       0.21038500
     8  N          0.32811800       0.64006000       0.78961500
     9  N          0.38077800       0.02304000       0.26436500
    10  N          0.11922200       0.02304000       0.73563500
    11  N          0.88077800       0.52304000       0.76436500
    12  N          0.61922200       0.52304000       0.23563500
    13  N          0.61922200      -0.02304000       0.73563500
    14  N          0.88077800      -0.02304000       0.26436500
    15  N          0.11922200       0.47696000       0.23563500
    16  N          0.38077800       0.47696000       0.76436500
    17  N          0.44612800       0.10044000       0.28561500
    18  N          0.05387200       0.10044000       0.71438500
    19  N          0.94612800       0.60044000       0.78561500
    20  N          0.55387200       0.60044000       0.21438500
    21  N          0.55387200       0.89956000       0.71438500
    22  N          0.94612800       0.89956000       0.28561500
    23  N          0.05387200       0.39956000       0.21438500
    24  N          0.44612800       0.39956000       0.78561500
    25  N          0.43722800      -0.01116000       0.32756500
    26  N          0.06277200      -0.01116000       0.67243500
    27  N          0.93722800       0.48884000       0.82756500
    28  N          0.56277200       0.48884000       0.17243500
    29  N          0.56277200       0.01116000       0.67243500
    30  N          0.93722800       0.01116000       0.32756500
    31  N          0.06277200       0.51116000       0.17243500
    32  N          0.43722800       0.51116000       0.82756500
    33  C          0.36564900       0.84684000       0.32871500
    34  C          0.13435100       0.84684000       0.67128500
    35  C          0.86564900       0.34684000       0.82871500
    36  C          0.63435100       0.34684000       0.17128500
    37  C          0.63435100       0.15316000       0.67128500
    38  C          0.86564900       0.15316000       0.32871500
    39  C          0.13435100       0.65316000       0.17128500
    40  C          0.36564900       0.65316000       0.82871500
    41  C          0.36634130       0.11986000       0.21741600
    42  C          0.13365870       0.11986000       0.78258400
    43  C          0.86634130       0.61986000       0.71741600
    44  C          0.63365870       0.61986000       0.28258400
    45  C          0.63365870       0.88014000       0.78258400
    46  C          0.86634130       0.88014000       0.21741600
    47  C          0.13365870       0.38014000       0.28258400
    48  C          0.36634130       0.38014000       0.71741600
    49  H          0.41250000       0.23590000       0.20520000
    50  H          0.08750000       0.23590000       0.79480000
    51  H          0.91250000       0.73590000       0.70520000
    52  H          0.58750000       0.73590000       0.29480000
    53  H          0.58750000       0.76410000       0.79480000
    54  H          0.91250000       0.76410000       0.20520000
    55  H          0.08750000       0.26410000       0.29480000
    56  H          0.41250000       0.26410000       0.70520000
    57  H          0.32190000       0.28000000       0.21580000
    58  H          0.17810000       0.28000000       0.78420000
    59  H          0.82190000       0.78000000       0.71580000
    60  H          0.67810000       0.78000000       0.28420000
    61  H          0.67810000       0.72000000       0.78420000
    62  H          0.82190000       0.72000000       0.21580000
    63  H          0.17810000       0.22000000       0.28420000
    64  H          0.32190000       0.22000000       0.71580000
    65  H          0.35500000       0.90840000       0.19980000
    66  H          0.14500000       0.90840000       0.80020000
    67  H          0.85500000       0.40840000       0.69980000
    68  H          0.64500000       0.40840000       0.30020000
    69  H          0.64500000       0.09160000       0.80020000
    70  H          0.85500000       0.09160000       0.19980000
    71  H          0.14500000       0.59160000       0.30020000
    72  H          0.35500000       0.59160000       0.69980000
    73  H          0.36631200       0.59460000       0.38647000
    74  H          0.13368800       0.59460000       0.61353000
    75  H          0.86631200       0.09460000       0.88647000
    76  H          0.63368800       0.09460000       0.11353000
    77  H          0.63368800       0.40540000       0.61353000
    78  H          0.86631200       0.40540000       0.38647000
    79  H          0.13368800       0.90540000       0.11353000
    80  H          0.36631200       0.90540000       0.88647000
    81  N          0.33675800       0.68544000       0.36732500
    82  N          0.16324200       0.68544000       0.63267500
    83  N          0.83675800       0.18544000       0.86732500
    84  N          0.66324200       0.18544000       0.13267500
    85  N          0.66324200       0.31456000       0.63267500
    86  N          0.83675800       0.31456000       0.36732500
    87  N          0.16324200       0.81456000       0.13267500
    88  N          0.33675800       0.81456000       0.86732500
    89  N          0.26682800       0.78574000       0.38494500
    90  N          0.23317200       0.78574000       0.61505500
    91  N          0.76682800       0.28574000       0.88494500
    92  N          0.73317200       0.28574000       0.11505500
    93  N          0.73317200       0.21426000       0.61505500
    94  N          0.76682800       0.21426000       0.38494500
    95  N          0.23317200       0.71426000       0.11505500
    96  N          0.26682800       0.71426000       0.88494500
    97  O          0.25149700       0.66884000       0.42241400
    98  O          0.24850300       0.66884000       0.57758600
    99  O          0.75149700       0.16884000       0.92241400
   100  O          0.74850300       0.16884000       0.07758600
   101  O          0.74850300       0.33116000       0.57758600
   102  O          0.75149700       0.33116000       0.42241400
   103  O          0.24850300       0.83116000       0.07758600
   104  O          0.25149700       0.83116000       0.92241400
   105  O          0.22387700      -0.02706000       0.36220400
   106  O          0.27612300      -0.02706000       0.63779600
   107  O          0.72387700       0.47294000       0.86220400
   108  O          0.77612300       0.47294000       0.13779600
   109  O          0.77612300       0.02706000       0.63779600
   110  O          0.72387700       0.02706000       0.36220400
   111  O          0.27612300       0.52706000       0.13779600
   112  O          0.22387700       0.52706000       0.86220400
   113  N          0.46077700       0.39984000       0.46232400
   114  N          0.03922300       0.39984000       0.53767600
   115  N          0.96077700       0.89984000       0.96232400
   116  N          0.53922300       0.89984000       0.03767600
   117  N          0.53922300       0.60016000       0.53767600
   118  N          0.96077700       0.60016000       0.46232400
   119  N          0.03922300       0.10016000       0.03767600
   120  N          0.46077700       0.10016000       0.96232400
   121  C          0.42885900       0.33484000       0.50381500
   122  C          0.07114100       0.33484000       0.49618500
   123  C          0.92885900       0.83484000       0.00381500
   124  C          0.57114100       0.83484000      -0.00381500
   125  C          0.57114100       0.66516000       0.49618500
   126  C          0.92885900       0.66516000       0.50381500
   127  C          0.07114100       0.16516000      -0.00381500
   128  C          0.42885900       0.16516000       0.00381500
   129  C          0.46849900       0.43734000       0.54232500
   130  C          0.03150100       0.43734000       0.45767500
   131  C          0.96849900       0.93734000       0.04232500
   132  C          0.53150100       0.93734000       0.95767500
   133  C          0.53150100       0.56266000       0.45767500
   134  C          0.96849900       0.56266000       0.54232500
   135  C          0.03150100       0.06266000       0.95767500
   136  C          0.46849900       0.06266000       0.04232500
   137  O          0.42322700       0.29653000       0.42615400
   138  O          0.07677300       0.29653000       0.57384600
   139  O          0.92322700       0.79653000       0.92615400
   140  O          0.57677300       0.79653000       0.07384600
   141  O          0.57677300       0.70347000       0.57384600
   142  O          0.92322700       0.70347000       0.42615400
   143  O          0.07677300       0.20347000       0.07384600
   144  O          0.42322700       0.20347000       0.92615400
   145  C          0.35065900       0.16595000       0.50303600
   146  C          0.14934100       0.16595000       0.49696400
   147  C          0.85065900       0.66595000       0.00303600
   148  C          0.64934100       0.66595000      -0.00303600
   149  C          0.64934100       0.83405000       0.49696400
   150  C          0.85065900       0.83405000       0.50303600
   151  C          0.14934100       0.33405000      -0.00303600
   152  C          0.35065900       0.33405000       0.00303600
   153  H          0.31250000       0.32950000       0.49030000
   154  H          0.18750000       0.32950000       0.50970000
   155  H          0.81250000       0.82950000       0.99030000
   156  H          0.68750000       0.82950000       0.00970000
   157  H          0.68750000       0.67050000       0.50970000
   158  H          0.81250000       0.67050000       0.49030000
   159  H          0.18750000       0.17050000       0.00970000
   160  H          0.31250000       0.17050000       0.99030000
   161  H          0.33550000       0.10350000       0.53380000
   162  H          0.16450000       0.10350000       0.46620000
   163  H          0.83550000       0.60350000       0.03380000
   164  H          0.66450000       0.60350000       0.96620000
   165  H          0.66450000       0.89650000       0.46620000
   166  H          0.83550000       0.89650000       0.53380000
   167  H          0.16450000       0.39650000       0.96620000
   168  H          0.33550000       0.39650000       0.03380000
   169  H          0.35250000       0.95370000       0.48450000
   170  H          0.14750000       0.95370000       0.51550000
   171  H          0.85250000       0.45370000       0.98450000
   172  H          0.64750000       0.45370000       0.01550000
   173  H          0.64750000       0.04630000       0.51550000
   174  H          0.85250000       0.04630000       0.48450000
   175  H          0.14750000       0.54630000       0.01550000
   176  H          0.35250000       0.54630000       0.98450000
   177  C          0.44071100       0.38685000       0.58939600
   178  C          0.05928900       0.38685000       0.41060400
   179  C          0.94071100       0.88685000       0.08939600
   180  C          0.55928900       0.88685000       0.91060400
   181  C          0.55928900       0.61315000       0.41060400
   182  C          0.94071100       0.61315000       0.58939600
   183  C          0.05928900       0.11315000       0.91060400
   184  C          0.44071100       0.11315000       0.08939600
   185  H          0.38770000       0.29260000       0.58880000
   186  H          0.11230000       0.29260000       0.41120000
   187  H          0.88770000       0.79260000       0.08880000
   188  H          0.61230000       0.79260000       0.91120000
   189  H          0.61230000       0.70740000       0.41120000
   190  H          0.88770000       0.70740000       0.58880000
   191  H          0.11230000       0.20740000       0.91120000
   192  H          0.38770000       0.20740000       0.08880000
   193  H          0.44100000       0.61250000       0.60520000
   194  H          0.05900000       0.61250000       0.39480000
   195  H          0.94100000       0.11250000       0.10520000
   196  H          0.55900000       0.11250000       0.89480000
   197  H          0.55900000       0.38750000       0.39480000
   198  H          0.94100000       0.38750000       0.60520000
   199  H          0.05900000       0.88750000       0.89480000
   200  H          0.44100000       0.88750000       0.10520000
   201  H          0.47520000       0.22210000       0.60510000
   202  H          0.02480000       0.22210000       0.39490000
   203  H          0.97520000       0.72210000       0.10510000
   204  H          0.52480000       0.72210000       0.89490000
   205  H          0.52480000       0.77790000       0.39490000
   206  H          0.97520000       0.77790000       0.60510000
   207  H          0.02480000       0.27790000       0.89490000
   208  H          0.47520000       0.27790000       0.10510000
