data_NUJWEV
_symmetry_space_group_name_H-M    'P1'
_symmetry_Int_Tables_number       1
loop_
_symmetry_equiv_pos_site_id
_symmetry_equiv_pos_as_xyz
1 x,y,z
_cell_length_a                   4.93746
_cell_length_b                   22.5973
_cell_length_c                   19.2332
_cell_angle_alpha                90.0
_cell_angle_beta                 96.8692
_cell_angle_gamma                90.0
loop_
_atom_site_label
_atom_site_type_symbol
_atom_site_fract_x
_atom_site_fract_y
_atom_site_fract_z
     1  Br         0.20274600       0.58489990       0.10899811
     2  Br         0.79725400       0.08489990       0.39100189
     3  Br         0.79725400       0.41510010       0.89100189
     4  Br         0.20274600       0.91510010       0.60899811
     5  C          0.94336000       0.56230900       0.28222100
     6  C          0.05664000       0.06230900       0.21777900
     7  C          0.05664000       0.43769100       0.71777900
     8  C          0.94336000       0.93769100       0.78222100
     9  C          0.82926000       0.51289900       0.24598100
    10  C          0.17074000       0.01289900       0.25401900
    11  C          0.17074000       0.48710100       0.75401900
    12  C          0.82926000       0.98710100       0.74598100
    13  H          0.90430000       0.47470000       0.25640000
    14  H          0.09570000       0.97470000       0.24360000
    15  H          0.09570000       0.52530000       0.74360000
    16  H          0.90430000       0.02530000       0.75640000
    17  C          0.60766000       0.51911900       0.19497100
    18  C          0.39234000       0.01911900       0.30502900
    19  C          0.39234000       0.48088100       0.80502900
    20  C          0.60766000       0.98088100       0.69497100
    21  H          0.53000000       0.48550000       0.17060000
    22  H          0.47000000       0.98550000       0.32940000
    23  H          0.47000000       0.51450000       0.82940000
    24  H          0.53000000       0.01450000       0.67060000
    25  C          0.50116000       0.57502900       0.18006100
    26  C          0.49884000       0.07502900       0.31993900
    27  C          0.49884000       0.42497100       0.81993900
    28  C          0.50116000       0.92497100       0.68006100
    29  C          0.60576000       0.62431900       0.21586110
    30  C          0.39424000       0.12431900       0.28413890
    31  C          0.39424000       0.37568100       0.78413890
    32  C          0.60576000       0.87568100       0.71586110
    33  H          0.52780000       0.66220000       0.20560000
    34  H          0.47220000       0.16220000       0.29440000
    35  H          0.47220000       0.33780000       0.79440000
    36  H          0.52780000       0.83780000       0.70560000
    37  C          0.82746000       0.61785900       0.26735100
    38  C          0.17254000       0.11785900       0.23264900
    39  C          0.17254000       0.38214100       0.73264900
    40  C          0.82746000       0.88214100       0.76735100
    41  H          0.90040000       0.65160000       0.29250000
    42  H          0.09960000       0.15160000       0.20750000
    43  H          0.09960000       0.34840000       0.70750000
    44  H          0.90040000       0.84840000       0.79250000
    45  C          0.18414000       0.55582800       0.33487100
    46  C          0.81586000       0.05582800       0.16512900
    47  C          0.81586000       0.44417200       0.66512900
    48  C          0.18414000       0.94417200       0.83487100
    49  N          0.30563000       0.50563700       0.34499900
    50  N          0.69437000       0.00563700       0.15500100
    51  N          0.69437000       0.49436300       0.65500100
    52  N          0.30563000      -0.00563700       0.84499900
    53  O          0.52543000       0.50814600       0.39558700
    54  O          0.47457000       0.00814600       0.10441300
    55  O          0.47457000       0.49185400       0.60441300
    56  O          0.52543000       0.99185400       0.89558700
    57  H          0.60550000       0.47081100       0.39031200
    58  H          0.39450000       0.97081100       0.10968800
    59  H          0.39450000       0.52918900       0.60968800
    60  H          0.60550000       0.02918900       0.89031200
    61  C          0.28884000       0.60833900       0.37292100
    62  C          0.71116000       0.10833900       0.12707900
    63  C          0.71116000       0.39166100       0.62707900
    64  C          0.28884000       0.89166100       0.87292100
    65  N          0.36894000       0.65001800       0.40247100
    66  N          0.63106000       0.15001800       0.09752900
    67  N          0.63106000       0.34998200       0.59752900
    68  N          0.36894000       0.84998200       0.90247100
    69  Br        -0.01022500       0.08285410       0.60790512
    70  Br         0.01022500       0.58285410       0.89209488
    71  Br         0.01022500       0.91714590       0.39209488
    72  Br        -0.01022500       0.41714590       0.10790512
    73  N          0.06563000       0.33215700       0.40216800
    74  N          0.93437000       0.83215700       0.09783200
    75  N          0.93437000       0.66784300       0.59783200
    76  N          0.06563000       0.16784300       0.90216800
    77  C         -0.02306000       0.38499800       0.42489100
    78  C          0.02306000       0.88499800       0.07510900
    79  C          0.02306000       0.61500200       0.57510900
    80  C         -0.02306000       0.11500200       0.92489100
    81  N          0.76253000       0.40511700       0.38408900
    82  N          0.23747000       0.90511700       0.11591100
    83  N          0.23747000       0.59488300       0.61591100
    84  N          0.76253000       0.09488300       0.88408900
    85  C          0.70834000       0.36362900       0.33081100
    86  C          0.29166000       0.86362900       0.16918900
    87  C          0.29166000       0.63637100       0.66918900
    88  C          0.70834000       0.13637100       0.83081100
    89  C          0.50664000       0.36263900       0.27378110
    90  C          0.49336000       0.86263900       0.22621890
    91  C          0.49336000       0.63736100       0.72621890
    92  C          0.50664000       0.13736100       0.77378110
    93  H          0.37880000       0.39400000       0.26560000
    94  H          0.62120000       0.89400000       0.23440000
    95  H          0.62120000       0.60600000       0.73440000
    96  H          0.37880000       0.10600000       0.76560000
    97  C          0.49874000       0.31447100       0.22953110
    98  C          0.50126000       0.81447100       0.27046890
    99  C          0.50126000       0.68552900       0.77046890
   100  C          0.49874000       0.18552900       0.72953110
   101  H          0.36280000       0.31280000       0.19020000
   102  H          0.63720000       0.81280000       0.30980000
   103  H          0.63720000       0.68720000       0.80980000
   104  H          0.36280000       0.18720000       0.69020000
   105  C          0.68695000       0.26781100       0.24132110
   106  C          0.31305000       0.76781100       0.25867890
   107  C          0.31305000       0.73218900       0.75867890
   108  C          0.68695000       0.23218900       0.74132110
   109  H          0.67610000       0.23540000       0.20960000
   110  H          0.32390000       0.73540000       0.29040000
   111  H          0.32390000       0.76460000       0.79040000
   112  H          0.67610000       0.26460000       0.70960000
   113  C          0.88864000       0.26806900       0.29829100
   114  C          0.11136000       0.76806900       0.20170900
   115  C          0.11136000       0.73193100       0.70170900
   116  C          0.88864000       0.23193100       0.79829100
   117  H          0.01490000       0.23640000       0.30690000
   118  H         -0.01490000       0.73640000       0.19310000
   119  H         -0.01490000       0.76360000       0.69310000
   120  H          0.01490000       0.26360000       0.80690000
   121  C          0.89524000       0.31692800       0.34186100
   122  C          0.10476000       0.81692800       0.15813900
   123  C          0.10476000       0.68307200       0.65813900
   124  C          0.89524000       0.18307200       0.84186100
   125  C          0.10974000       0.41633900       0.48765110
   126  C          0.89026000       0.91633900       0.01234890
   127  C          0.89026000       0.58366100       0.51234890
   128  C          0.10974000       0.08366100       0.98765110
   129  H         -0.01300000       0.44710000       0.50150000
   130  H          0.01300000       0.94710000      -0.00150000
   131  H          0.01300000       0.55290000       0.49850000
   132  H         -0.01300000       0.05290000       0.00150000
   133  H          0.27970000       0.43460000       0.47670000
   134  H          0.72030000       0.93460000       0.02330000
   135  H          0.72030000       0.56540000       0.52330000
   136  H          0.27970000       0.06540000       0.97670000
   137  H          0.15010000       0.38800000       0.52610000
   138  H          0.84990000       0.88800000       0.97390000
   139  H          0.84990000       0.61200000       0.47390000
   140  H          0.15010000       0.11200000       0.02610000
   141  C          0.08394000       0.14893900       0.55455100
   142  C          0.91606000       0.64893900       0.94544900
   143  C          0.91606000       0.85106100       0.44544900
   144  C          0.08394000       0.35106100       0.05455100
   145  C          0.27844000       0.14221900       0.50941110
   146  C          0.72156000       0.64221900       0.99058890
   147  C          0.72156000       0.85778100       0.49058890
   148  C          0.27844000       0.35778100       0.00941110
   149  H          0.36830000       0.10540000       0.50570000
   150  H          0.63170000       0.60540000      -0.00570000
   151  H          0.63170000       0.89460000       0.49430000
   152  H          0.36830000       0.39460000       0.00570000
   153  C          0.34034000       0.19036900       0.46940100
   154  C          0.65966000       0.69036900       0.03059900
   155  C          0.65966000       0.80963100       0.53059900
   156  C          0.34034000       0.30963100       0.96940100
   157  H          0.47190000       0.18620000       0.43750000
   158  H          0.52810000       0.68620000       0.06250000
   159  H          0.52810000       0.81380000       0.56250000
   160  H          0.47190000       0.31380000       0.93750000
   161  C          0.21304000       0.24451800       0.47521100
   162  C          0.78696000       0.74451800       0.02478900
   163  C          0.78696000       0.75548200       0.52478900
   164  C          0.21304000       0.25548200       0.97521100
   165  C          0.01884000       0.25003900       0.52163100
   166  C         -0.01884000       0.75003900       0.97836900
   167  C         -0.01884000       0.74996100       0.47836900
   168  C          0.01884000       0.24996100       0.02163100
   169  H          0.93060000       0.28700000       0.52600000
   170  H          0.06940000       0.78700000       0.97400000
   171  H          0.06940000       0.71300000       0.47400000
   172  H          0.93060000       0.21300000       0.02600000
   173  C          0.95264000       0.20231900       0.56154100
   174  C          0.04736000       0.70231900       0.93845900
   175  C          0.04736000       0.79768100       0.43845900
   176  C          0.95264000       0.29768100       0.06154100
   177  H          0.81970000       0.20620000       0.59310000
   178  H          0.18030000       0.70620000       0.90690000
   179  H          0.18030000       0.79380000       0.40690000
   180  H          0.81970000       0.29380000       0.09310000
   181  C          0.29634000       0.29677800       0.43392100
   182  C          0.70366000       0.79677800       0.06607900
   183  C          0.70366000       0.70322200       0.56607900
   184  C          0.29634000       0.20322200       0.93392100
   185  H          0.41900000       0.32240000       0.46530000
   186  H          0.58100000       0.82240000       0.03470000
   187  H          0.58100000       0.67760000       0.53470000
   188  H          0.41900000       0.17760000       0.96530000
   189  H          0.40060000       0.28230000       0.39650000
   190  H          0.59940000       0.78230000       0.10350000
   191  H          0.59940000       0.71770000       0.60350000
   192  H          0.40060000       0.21770000       0.89650000
