data_NUJWIZ
_symmetry_space_group_name_H-M    'P1'
_symmetry_Int_Tables_number       1
loop_
_symmetry_equiv_pos_site_id
_symmetry_equiv_pos_as_xyz
1 x,y,z
_cell_length_a                   5.30336
_cell_length_b                   13.229415
_cell_length_c                   15.060117
_cell_angle_alpha                102.5362
_cell_angle_beta                 99.5052
_cell_angle_gamma                94.7522
loop_
_atom_site_label
_atom_site_type_symbol
_atom_site_fract_x
_atom_site_fract_y
_atom_site_fract_z
     1  Br         0.23446300       0.13084314       0.89941489
     2  Br         0.76553700       0.86915686       0.10058511
     3  N          0.72222000       0.20505100       0.36245900
     4  N          0.27778000       0.79494900       0.63754100
     5  C          0.68143000       0.15263130       0.42790100
     6  C          0.31857000       0.84736870       0.57209900
     7  H          0.75770000       0.09160000       0.43490000
     8  H          0.24230000       0.90840000       0.56510000
     9  N          0.52513000       0.19506110       0.48079900
    10  N          0.47487000       0.80493890       0.51920100
    11  C          0.45593000       0.28111120       0.44730100
    12  C          0.54407000       0.71888880       0.55269900
    13  C          0.28663000       0.35243130       0.47458110
    14  C          0.71337000       0.64756870       0.52541890
    15  H          0.19980000       0.34810000       0.52420000
    16  H          0.80020000       0.65190000       0.47580000
    17  C          0.25093000       0.42954130       0.42628110
    18  C          0.74907000       0.57045870       0.57371890
    19  H          0.13580000       0.47860000       0.44290000
    20  H          0.86420000       0.52140000       0.55710000
    21  C          0.38003000       0.43723130       0.35342110
    22  C          0.61997000       0.56276870       0.64657890
    23  H          0.35280000       0.49210000       0.32280000
    24  H          0.64720000       0.50790000       0.67720000
    25  C          0.54593000       0.36667130       0.32523110
    26  C          0.45407000       0.63332870       0.67476890
    27  H          0.63280000       0.37140000       0.27560000
    28  H          0.36720000       0.62860000       0.72440000
    29  C          0.57903000       0.28848120       0.37322100
    30  C          0.42097000       0.71151880       0.62677900
    31  C          0.43743000       0.14174120       0.01856100
    32  C          0.56257000       0.85825880       0.98143900
    33  C          0.67913000       0.19932120       0.04224110
    34  C          0.32087000       0.80067880       0.95775890
    35  H          0.74720000       0.23080000      -0.00120000
    36  H          0.25280000       0.76920000       0.00120000
    37  C          0.81943000       0.20998120       0.13078110
    38  C          0.18057000       0.79001880       0.86921890
    39  H         -0.01470000       0.24940000       0.14810000
    40  H          0.01470000       0.75060000       0.85190000
    41  C          0.72093000       0.16379120       0.19472100
    42  C          0.27907000       0.83620880       0.80527900
    43  C          0.47963000       0.10480120       0.16856110
    44  C          0.52037000       0.89519880       0.83143890
    45  H          0.41250000       0.07190000       0.21130000
    46  H          0.58750000       0.92810000       0.78870000
    47  C          0.33593000       0.09369120       0.08019110
    48  C          0.66407000       0.90630880       0.91980890
    49  H          0.17070000       0.05380000       0.06240000
    50  H          0.82930000       0.94620000       0.93760000
    51  C          0.87753000       0.17743130       0.29080110
    52  C          0.12247000       0.82256870       0.70919890
    53  H          0.94920000       0.11170000       0.29590000
    54  H          0.05080000       0.88830000       0.70410000
    55  H          0.02350000       0.23290000       0.30100000
    56  H         -0.02350000       0.76710000       0.69900000
    57  Br         0.73817700       0.59455612       0.94309811
    58  Br         0.26182300       0.40544388       0.05690189
    59  C          0.94477000       0.30103120       0.74697100
    60  C          0.05523000       0.69896880       0.25302900
    61  C          0.08473000       0.39889130       0.75905110
    62  C          0.91527000       0.60110870       0.24094890
    63  H          0.22040000       0.40600000       0.72600000
    64  H          0.77960000       0.59400000       0.27400000
    65  C          0.02733000       0.48555130       0.81884110
    66  C         -0.02733000       0.51444870       0.18115890
    67  H          0.12390000       0.55190000       0.82750000
    68  H          0.87610000       0.44810000       0.17250000
    69  C          0.82587000       0.47412120       0.86604100
    70  C          0.17413000       0.52587880       0.13395900
    71  C          0.68567000       0.37825130       0.85578110
    72  C          0.31433000       0.62174870       0.14421890
    73  H          0.55010000       0.37150000       0.88900000
    74  H          0.44990000       0.62850000       0.11100000
    75  C          0.74597000       0.29203130       0.79621110
    76  C          0.25403000       0.70796870       0.20378890
    77  H          0.65070000       0.22570000       0.78870000
    78  H          0.34930000       0.77430000       0.21130000
    79  C          0.00833000       0.20877120       0.68401100
    80  C         -0.00833000       0.79122880       0.31598900
    81  N          0.18273000       0.21829110       0.63470900
    82  N          0.81727000       0.78170890       0.36529100
    83  O          0.22172000       0.12539900       0.58132800
    84  O          0.77828000       0.87460100       0.41867200
    85  H          0.34340000       0.14441700       0.55001500
    86  H          0.65660000       0.85558300       0.44998500
    87  C          0.87557000       0.10712130       0.67962110
    88  C          0.12443000       0.89287870       0.32037890
    89  N          0.77287000       0.02743120       0.67896110
    90  N          0.22713000       0.97256880       0.32103890
