data_NUKLAI
_symmetry_space_group_name_H-M    'P1'
_symmetry_Int_Tables_number       1
loop_
_symmetry_equiv_pos_site_id
_symmetry_equiv_pos_as_xyz
1 x,y,z
_cell_length_a                   10.318814
_cell_length_b                   13.6452
_cell_length_c                   13.926419
_cell_angle_alpha                79.8866
_cell_angle_beta                 72.2205
_cell_angle_gamma                73.7625
loop_
_atom_site_label
_atom_site_type_symbol
_atom_site_fract_x
_atom_site_fract_y
_atom_site_fract_z
     1  C          0.73414000       0.25603000       0.38663000
     2  C          0.26586000       0.74397000       0.61337000
     3  C          0.56774000       0.46383000       0.60853000
     4  C          0.43226000       0.53617000       0.39147000
     5  H          0.49810000       0.45050000       0.66860000
     6  H          0.50190000       0.54950000       0.33140000
     7  C          0.56614000       0.15543000       0.48163000
     8  C          0.43386000       0.84457000       0.51837000
     9  H          0.50690000       0.13390000       0.54410000
    10  H          0.49310000       0.86610000       0.45590000
    11  C          0.55484000       0.24123000       0.67403000
    12  C          0.44516000       0.75877000       0.32597000
    13  C          0.68314000       0.17323000       0.73893000
    14  C          0.31686000       0.82677000       0.26107000
    15  C          0.80624000       0.33343000       0.37953000
    16  C          0.19376000       0.66657000       0.62047000
    17  C          0.61144000       0.28513000       0.56593000
    18  C          0.38856000       0.71487000       0.43407000
    19  C          0.74054000       0.40703000       0.45133000
    20  C          0.25946000       0.59297000       0.54867000
    21  C          0.69604000       0.58043000       0.49863000
    22  C          0.30396000       0.41957000       0.50137000
    23  H          0.71550000       0.64630000       0.48400000
    24  H          0.28450000       0.35370000       0.51600000
    25  C          0.64004000       0.38323000       0.54423000
    26  C          0.35996000       0.61677000       0.45577000
    27  C          0.63844000       0.22973000       0.48073000
    28  C          0.36156000       0.77027000       0.51927000
    29  C          0.76564000       0.50753000       0.43433000
    30  C          0.23436000       0.49247000       0.56567000
    31  H          0.83460000       0.52370000       0.37500000
    32  H          0.16540000       0.47630000       0.62500000
    33  C          0.83594000       0.15963000       0.68603000
    34  C          0.16406000       0.84037000       0.31397000
    35  C          0.90554000       0.35273000       0.12363000
    36  C          0.09446000       0.64727000       0.87637000
    37  C          0.95494000       0.33013000       0.31253000
    38  C          0.04506000       0.66987000       0.68747000
    39  C          0.66744000       0.14033000       0.30453000
    40  C          0.33256000       0.85967000       0.69547000
    41  H          0.67510000       0.11150000       0.24510000
    42  H          0.32490000       0.88850000       0.75490000
    43  C          0.12664000       0.12143000       0.61143000
    44  C          0.87336000       0.87857000       0.38857000
    45  H          0.22590000       0.10790000       0.58730000
    46  H          0.77410000       0.89210000       0.41270000
    47  C          0.57774000       0.11333000       0.39673000
    48  C          0.42226000       0.88667000       0.60327000
    49  H          0.52450000       0.06540000       0.40030000
    50  H          0.47550000       0.93460000       0.59970000
    51  C          0.74384000       0.20833000       0.30013000
    52  C          0.25616000       0.79167000       0.69987000
    53  H          0.80630000       0.22490000       0.23710000
    54  H          0.19370000       0.77510000       0.76290000
    55  C          0.05754000       0.05063000       0.60593000
    56  C          0.94246000       0.94937000       0.39407000
    57  H          0.10870000       0.98880000       0.57600000
    58  H          0.89130000       0.01120000       0.42400000
    59  C          0.91384000       0.06933000       0.64363000
    60  C          0.08616000       0.93067000       0.35637000
    61  H          0.86730000       0.01940000       0.64060000
    62  H          0.13270000       0.98060000       0.35940000
    63  B          0.08495000       0.24693000       0.36104000
    64  B          0.91505000       0.75307000       0.63896000
    65  H          0.04440000       0.20830000       0.43230000
    66  H          0.95560000       0.79170000       0.56770000
    67  C          0.59414000       0.55793000       0.58763000
    68  C          0.40586000       0.44207000       0.41237000
    69  H          0.54390000       0.60890000       0.63280000
    70  H          0.45610000       0.39110000       0.36720000
    71  C          0.01254000       0.33633000       0.18103000
    72  C          0.98746000       0.66367000       0.81897000
    73  C          0.05034000       0.21253000       0.65233000
    74  C          0.94966000       0.78747000       0.34767000
    75  H          0.09750000       0.26240000       0.65440000
    76  H          0.90250000       0.73760000       0.34560000
    77  B          0.18625000       0.41994000       0.24354000
    78  B          0.81375000       0.58006000       0.75646000
    79  H          0.22730000       0.49320000       0.24020000
    80  H          0.77270000       0.50680000       0.75980000
    81  B          0.45765000       0.08143000       0.81013000
    82  B          0.54235000       0.91857000       0.18987000
    83  H          0.42330000       0.01220000       0.82220000
    84  H          0.57670000       0.98780000       0.17780000
    85  C          0.90624000       0.23163000       0.69013000
    86  C          0.09376000       0.76837000       0.30987000
    87  H          0.85500000       0.29390000       0.71890000
    88  H          0.14500000       0.70610000       0.28110000
    89  C          0.93144000       0.29603000       0.04313000
    90  C          0.06856000       0.70397000       0.95687000
    91  H          0.02000000       0.24940000       0.02200000
    92  H          0.98000000       0.75060000       0.97800000
    93  C          0.77474000       0.42213000       0.15123000
    94  C          0.22526000       0.57787000       0.84877000
    95  H          0.75520000       0.46320000       0.20470000
    96  H          0.24480000       0.53680000       0.79530000
    97  B          0.58285000       0.29173000       0.77143000
    98  B          0.41715000       0.70827000       0.22857000
    99  H          0.63540000       0.35530000       0.75620000
   100  H          0.36460000       0.64470000       0.24380000
   101  B          0.17525000       0.25733000       0.14433000
   102  B          0.82475000       0.74267000       0.85567000
   103  H          0.20140000       0.21530000       0.07930000
   104  H          0.79860000       0.78470000       0.92070000
   105  B          0.62535000       0.07593000       0.82123000
   106  B          0.37465000       0.92407000       0.17877000
   107  H          0.69630000       0.01020000       0.83120000
   108  H          0.30370000       0.98980000       0.16880000
   109  C          0.83114000       0.30623000      -0.00633000
   110  C          0.16886000       0.69377000       0.00633000
   111  H          0.85100000       0.26670000       0.93890000
   112  H          0.14900000       0.73330000       0.06110000
   113  B          0.06325000       0.38163000       0.35283000
   114  B          0.93675000       0.61837000       0.64717000
   115  H          0.02430000       0.41920000       0.42320000
   116  H          0.97570000       0.58080000       0.57680000
   117  B          0.41585000       0.18473000       0.72003000
   118  B          0.58415000       0.81527000       0.27997000
   119  H          0.34930000       0.18520000       0.66620000
   120  H          0.65070000       0.81480000       0.33380000
   121  B          0.34785000       0.20163000       0.84953000
   122  B          0.65215000       0.79837000       0.15047000
   123  H          0.23630000       0.21520000       0.88520000
   124  H          0.76370000       0.78480000       0.11480000
   125  C          0.67424000       0.43163000       0.10213000
   126  C          0.32576000       0.56837000       0.89787000
   127  H          0.58560000       0.47830000       0.12260000
   128  H          0.41440000       0.52170000       0.87740000
   129  B          0.41105000       0.30003000       0.76363000
   130  B          0.58895000       0.69997000       0.23637000
   131  H          0.34640000       0.36830000       0.73630000
   132  H          0.65360000       0.63170000       0.26370000
   133  C          0.70104000       0.37373000       0.02323000
   134  C          0.29896000       0.62627000       0.97677000
   135  H          0.63130000       0.38000000      -0.01050000
   136  H          0.36870000       0.62000000       0.01050000
   137  B          0.23245000       0.30163000       0.31704000
   138  B          0.76755000       0.69837000       0.68296000
   139  H          0.30440000       0.29030000       0.36330000
   140  H          0.69560000       0.70970000       0.63670000
   141  B          0.28935000       0.30754000       0.18374000
   142  B          0.71065000       0.69246000       0.81626000
   143  H          0.40430000       0.30220000       0.13920000
   144  H          0.59570000       0.69780000       0.86080000
   145  B          0.47605000       0.13493000       0.91253000
   146  B          0.52395000       0.86507000       0.08747000
   147  H          0.44830000       0.09920000      -0.00780000
   148  H          0.55170000       0.90080000       0.00780000
   149  B          0.22565000       0.20214000       0.25594000
   150  B          0.77435000       0.79786000       0.74406000
   151  H          0.29240000       0.12730000       0.26130000
   152  H          0.70760000       0.87270000       0.73870000
   153  B          0.45015000       0.26983000       0.88153000
   154  B          0.54985000       0.73017000       0.11847000
   155  H          0.40830000       0.32630000       0.93720000
   156  H          0.59170000       0.67370000       0.06280000
   157  B          0.62175000       0.19023000       0.86473000
   158  B          0.37825000       0.80977000       0.13527000
   159  H          0.69530000       0.19620000       0.90520000
   160  H          0.30470000       0.80380000       0.09480000
   161  B          0.59065000       0.10853000       0.70083000
   162  B          0.40935000       0.89147000       0.29917000
   163  H          0.65330000       0.06420000       0.63220000
   164  H          0.34670000       0.93580000       0.36780000
   165  B          0.15355000       0.39074000       0.13554000
   166  B          0.84645000       0.60926000       0.86446000
   167  H          0.16130000       0.44220000       0.06320000
   168  H          0.83870000       0.55780000       0.93680000
   169  B          0.01265000       0.43604000       0.23973000
   170  B          0.98735000       0.56396000       0.76027000
   171  H          0.93440000       0.50830000       0.23120000
   172  H          0.06560000       0.49170000       0.76880000
   173  B          0.05365000       0.21894000       0.25213000
   174  B          0.94635000       0.78106000       0.74787000
   175  H          0.00030000       0.16420000       0.25920000
   176  H         -0.00030000       0.83580000       0.74080000
   177  C          0.87504000       0.98223000      -0.00023000
   178  C          0.12496000       0.01777000       0.00023000
   179  H          0.78890000       0.97030000      -0.00070000
   180  H          0.21110000       0.02970000       0.00070000
   181  C          0.96614000       0.01083000       0.91017000
   182  C          0.03386000       0.98917000       0.08983000
   183  H          0.94270000       0.01810000       0.84800000
   184  H          0.05730000       0.98190000       0.15200000
   185  C          0.90904000       0.97123000       0.08933000
   186  C          0.09096000       0.02877000       0.91067000
   187  H          0.84680000       0.95110000       0.15090000
   188  H          0.15320000       0.04890000       0.84910000
