data_NUKWEW01
_symmetry_space_group_name_H-M    'P1'
_symmetry_Int_Tables_number       1
loop_
_symmetry_equiv_pos_site_id
_symmetry_equiv_pos_as_xyz
1 x,y,z
_cell_length_a                   12.54281
_cell_length_b                   34.3373
_cell_length_c                   3.87303
_cell_angle_alpha                90.0
_cell_angle_beta                 90.0
_cell_angle_gamma                90.0
loop_
_atom_site_label
_atom_site_type_symbol
_atom_site_fract_x
_atom_site_fract_y
_atom_site_fract_z
     1  O          0.33311700       0.67286300       0.19843000
     2  O          0.16688300       0.32713700       0.69843000
     3  O          0.66688300       0.17286300       0.80157000
     4  O          0.83311700       0.82713700       0.30157000
     5  O          0.66688300       0.32713700       0.80157000
     6  O          0.83311700       0.67286300       0.30157000
     7  O          0.33311700       0.82713700       0.19843000
     8  O          0.16688300       0.17286300       0.69843000
     9  O          0.16990700       0.64779300       0.23973000
    10  O          0.33009300       0.35220700       0.73973000
    11  O          0.83009300       0.14779300       0.76027000
    12  O          0.66990700       0.85220700       0.26027000
    13  O          0.83009300       0.35220700       0.76027000
    14  O          0.66990700       0.64779300       0.26027000
    15  O          0.16990700       0.85220700       0.23973000
    16  O          0.33009300       0.14779300       0.73973000
    17  H          0.14621400       0.67456000       0.14850000
    18  H          0.35378600       0.32544000       0.64850000
    19  H          0.85378600       0.17456000       0.85150000
    20  H          0.64621400       0.82544000       0.35150000
    21  H          0.85378600       0.32544000       0.85150000
    22  H          0.64621400       0.67456000       0.35150000
    23  H          0.14621400       0.82544000       0.14850000
    24  H          0.35378600       0.17456000       0.64850000
    25  C          0.31410100       0.60805400       0.40363000
    26  C          0.18589900       0.39194600       0.90363000
    27  C          0.68589900       0.10805400       0.59637000
    28  C          0.81410100       0.89194600       0.09637000
    29  C          0.68589900       0.39194600       0.59637000
    30  C          0.81410100       0.60805400       0.09637000
    31  C          0.31410100       0.89194600       0.40363000
    32  C          0.18589900       0.10805400       0.90363000
    33  C          0.24409110       0.58006400       0.52993000
    34  C          0.25590890       0.41993600       0.02993000
    35  C          0.75590890       0.08006400       0.47007000
    36  C          0.74409110       0.91993600      -0.02993000
    37  C          0.75590890       0.41993600       0.47007000
    38  C          0.74409110       0.58006400      -0.02993000
    39  C          0.24409110       0.91993600       0.52993000
    40  C          0.25590890       0.08006400       0.02993000
    41  H          0.16950000       0.58490000       0.52980000
    42  H          0.33050000       0.41510000       0.02980000
    43  H          0.83050000       0.08490000       0.47020000
    44  H          0.66950000       0.91510000      -0.02980000
    45  H          0.83050000       0.41510000       0.47020000
    46  H          0.66950000       0.58490000      -0.02980000
    47  H          0.16950000       0.91510000       0.52980000
    48  H          0.33050000       0.08490000       0.02980000
    49  C          0.28281130       0.54526400       0.65534000
    50  C          0.21718870       0.45473600       0.15534000
    51  C          0.71718870       0.04526400       0.34466000
    52  C          0.78281130       0.95473600       0.84466000
    53  C          0.71718870       0.45473600       0.34466000
    54  C          0.78281130       0.54526400       0.84466000
    55  C          0.28281130       0.95473600       0.65534000
    56  C          0.21718870       0.04526400       0.15534000
    57  H          0.23490000       0.52630000       0.74400000
    58  H          0.26510000       0.47370000       0.24400000
    59  H          0.76510000       0.02630000       0.25600000
    60  H          0.73490000       0.97370000       0.75600000
    61  H          0.76510000       0.47370000       0.25600000
    62  H          0.73490000       0.52630000       0.75600000
    63  H          0.23490000       0.97370000       0.74400000
    64  H          0.26510000       0.02630000       0.24400000
    65  C          0.39075140       0.53789400       0.65244000
    66  C          0.10924860       0.46210600       0.15244000
    67  C          0.60924860       0.03789400       0.34756000
    68  C          0.89075140       0.96210600       0.84756000
    69  C          0.60924860       0.46210600       0.34756000
    70  C          0.89075140       0.53789400       0.84756000
    71  C          0.39075140       0.96210600       0.65244000
    72  C          0.10924860       0.03789400       0.15244000
    73  H          0.41710000       0.51380000       0.73760000
    74  H          0.08290000       0.48620000       0.23760000
    75  H          0.58290000       0.01380000       0.26240000
    76  H          0.91710000       0.98620000       0.76240000
    77  H          0.58290000       0.48620000       0.26240000
    78  H          0.91710000       0.51380000       0.76240000
    79  H          0.41710000       0.98620000       0.73760000
    80  H          0.08290000       0.01380000       0.23760000
    81  C          0.46068120       0.56547400       0.52594000
    82  C          0.03931880       0.43452600       0.02594000
    83  C          0.53931880       0.06547400       0.47406000
    84  C          0.96068120       0.93452600      -0.02594000
    85  C          0.53931880       0.43452600       0.47406000
    86  C          0.96068120       0.56547400      -0.02594000
    87  C          0.46068120       0.93452600       0.52594000
    88  C          0.03931880       0.06547400       0.02594000
    89  H          0.53510000       0.56030000       0.52310000
    90  H          0.96490000       0.43970000       0.02310000
    91  H          0.46490000       0.06030000       0.47690000
    92  H          0.03510000       0.93970000      -0.02310000
    93  H          0.46490000       0.43970000       0.47690000
    94  H          0.03510000       0.56030000      -0.02310000
    95  H          0.53510000       0.93970000       0.52310000
    96  H          0.96490000       0.06030000       0.02310000
    97  C          0.42268110       0.60065400       0.40344000
    98  C          0.07731890       0.39934600       0.90344000
    99  C          0.57731890       0.10065400       0.59656000
   100  C          0.92268110       0.89934600       0.09656000
   101  C          0.57731890       0.39934600       0.59656000
   102  C          0.92268110       0.60065400       0.09656000
   103  C          0.42268110       0.89934600       0.40344000
   104  C          0.07731890       0.10065400       0.90344000
   105  H          0.47100000       0.61970000       0.31910000
   106  H          0.02900000       0.38030000       0.81910000
   107  H          0.52900000       0.11970000       0.68090000
   108  H          0.97100000       0.88030000       0.18090000
   109  H          0.52900000       0.38030000       0.68090000
   110  H          0.97100000       0.61970000       0.18090000
   111  H          0.47100000       0.88030000       0.31910000
   112  H          0.02900000       0.11970000       0.81910000
   113  C          0.27409100       0.64598400       0.27083000
   114  C          0.22590900       0.35401600       0.77083000
   115  C          0.72590900       0.14598400       0.72917000
   116  C          0.77409100       0.85401600       0.22917000
   117  C          0.72590900       0.35401600       0.72917000
   118  C          0.77409100       0.64598400       0.22917000
   119  C          0.27409100       0.85401600       0.27083000
   120  C          0.22590900       0.14598400       0.77083000
   121  N          0.09752800       0.71530300       0.01473000
   122  N          0.40247200       0.28469700       0.51473000
   123  N          0.90247200       0.21530300      -0.01473000
   124  N          0.59752800       0.78469700       0.48527000
   125  N          0.90247200       0.28469700      -0.01473000
   126  N          0.59752800       0.71530300       0.48527000
   127  N          0.09752800       0.78469700       0.01473000
   128  N          0.40247200       0.21530300       0.51473000
   129  N          0.22947120       0.75000000       0.28904000
   130  N          0.27052880       0.25000000       0.78904000
   131  N          0.77052880       0.25000000       0.71096000
   132  N          0.72947120       0.75000000       0.21096000
   133  H          0.26601100       0.72834000       0.30640000
   134  H          0.23398900       0.27166000       0.80640000
   135  H          0.73398900       0.22834000       0.69360000
   136  H          0.76601100       0.77166000       0.19360000
   137  H          0.73398900       0.27166000       0.69360000
   138  H          0.76601100       0.72834000       0.19360000
   139  H          0.26601100       0.77166000       0.30640000
   140  H          0.23398900       0.22834000       0.80640000
   141  C          0.14033130       0.75000000       0.09974000
   142  C          0.35966870       0.25000000       0.59974000
   143  C          0.85966870       0.25000000       0.90026000
   144  C          0.64033130       0.75000000       0.40026000
   145  C          0.00671100       0.71590400       0.83547000
   146  C          0.49328900       0.28409600       0.33547000
   147  C         -0.00671100       0.21590400       0.16453000
   148  C          0.50671100       0.78409600       0.66453000
   149  C         -0.00671100       0.28409600       0.16453000
   150  C          0.50671100       0.71590400       0.66453000
   151  C          0.00671100       0.78409600       0.83547000
   152  C          0.49328900       0.21590400       0.33547000
   153  H          0.97480000       0.69190000       0.77140000
   154  H          0.52520000       0.30810000       0.27140000
   155  H          0.02520000       0.19190000       0.22860000
   156  H          0.47480000       0.80810000       0.72860000
   157  H          0.02520000       0.30810000       0.22860000
   158  H          0.47480000       0.69190000       0.72860000
   159  H          0.97480000       0.80810000       0.77140000
   160  H          0.52520000       0.19190000       0.27140000
   161  C          0.95756860       0.75000000       0.74025000
   162  C          0.54243140       0.25000000       0.24025000
   163  C          0.04243140       0.25000000       0.25975000
   164  C          0.45756860       0.75000000       0.75975000
   165  H          0.89260000       0.75000000       0.61440000
   166  H          0.60740000       0.25000000       0.11440000
   167  H          0.10740000       0.25000000       0.38560000
   168  H          0.39260000       0.75000000       0.88560000
