data_NUKXAT
_symmetry_space_group_name_H-M    'P1'
_symmetry_Int_Tables_number       1
loop_
_symmetry_equiv_pos_site_id
_symmetry_equiv_pos_as_xyz
1 x,y,z
_cell_length_a                   13.022913
_cell_length_b                   3.85613
_cell_length_c                   22.0482
_cell_angle_alpha                90.0
_cell_angle_beta                 104.3224
_cell_angle_gamma                90.0
loop_
_atom_site_label
_atom_site_type_symbol
_atom_site_fract_x
_atom_site_fract_y
_atom_site_fract_z
     1  O          0.68146700       0.36223000       0.33730400
     2  O          0.31853300       0.86223000       0.16269600
     3  O          0.31853300       0.63777000       0.66269600
     4  O          0.68146700       0.13777000       0.83730400
     5  O          0.75261800       0.39053000       0.44023400
     6  O          0.24738200       0.89053000       0.05976600
     7  O          0.24738200       0.60947000       0.55976600
     8  O          0.75261800       0.10947000       0.94023400
     9  H          0.69101600       0.27760000       0.44529000
    10  H          0.30898400       0.77760000       0.05471000
    11  H          0.30898400       0.72240000       0.55471000
    12  H          0.69101600       0.22240000       0.94529000
    13  O          0.78216800       0.64003000       0.26136400
    14  O          0.21783200       0.14003000       0.23863600
    15  O          0.21783200       0.35997000       0.73863600
    16  O          0.78216800       0.85997000       0.76136400
    17  H          0.73100000       0.54400000       0.27160000
    18  H          0.26900000       0.04400000       0.22840000
    19  H          0.26900000       0.45600000       0.72840000
    20  H          0.73100000       0.95600000       0.77160000
    21  C          0.85061100       0.62303000       0.37353600
    22  C          0.14938900       0.12303000       0.12646400
    23  C          0.14938900       0.37697000       0.62646400
    24  C          0.85061100       0.87697000       0.87353600
    25  C          0.85937100       0.71034000       0.31335600
    26  C          0.14062900       0.21034000       0.18664400
    27  C          0.14062900       0.28966000       0.68664400
    28  C          0.85937100       0.78966000       0.81335600
    29  C          0.95047110       0.87363000       0.30576700
    30  C          0.04952890       0.37363000       0.19423300
    31  C          0.04952890       0.12637000       0.69423300
    32  C          0.95047110       0.62637000       0.80576700
    33  H          0.95580000       0.93840000       0.26510000
    34  H          0.04420000       0.43840000       0.23490000
    35  H          0.04420000       0.06160000       0.73490000
    36  H          0.95580000       0.56160000       0.76510000
    37  C          0.03268110       0.94174000       0.35662700
    38  C          0.96731890       0.44174000       0.14337300
    39  C          0.96731890       0.05826000       0.64337300
    40  C          0.03268110       0.55826000       0.85662700
    41  H          0.09510000       0.04970000       0.35080000
    42  H          0.90490000       0.54970000       0.14920000
    43  H          0.90490000       0.95030000       0.64920000
    44  H          0.09510000       0.45030000       0.85080000
    45  C          0.02573110       0.85464000       0.41659700
    46  C          0.97426890       0.35464000       0.08340300
    47  C          0.97426890       0.14536000       0.58340300
    48  C          0.02573110       0.64536000       0.91659700
    49  H          0.08310000       0.90100000       0.45160000
    50  H          0.91690000       0.40100000       0.04840000
    51  H          0.91690000       0.09900000       0.54840000
    52  H          0.08310000       0.59900000       0.95160000
    53  C          0.93479100       0.70034000       0.42466600
    54  C          0.06520900       0.20034000       0.07533400
    55  C          0.06520900       0.29966000       0.57533400
    56  C          0.93479100       0.79966000       0.92466600
    57  H          0.92920000       0.64530000       0.46570000
    58  H          0.07080000       0.14530000       0.03430000
    59  H          0.07080000       0.35470000       0.53430000
    60  H          0.92920000       0.85470000       0.96570000
    61  C          0.75437100       0.44844000       0.38146600
    62  C          0.24562900       0.94844000       0.11853400
    63  C          0.24562900       0.55156000       0.61853400
    64  C          0.75437100       0.05156000       0.88146600
    65  N          0.58265800       0.10653000       0.47325500
    66  N          0.41734200       0.60653000       0.02674500
    67  N          0.41734200       0.89347000       0.52674500
    68  N          0.58265800       0.39347000       0.97325500
    69  C          0.40415110       0.69856000       0.34011600
    70  C          0.59584890       0.19856000       0.15988400
    71  C          0.59584890       0.30144000       0.65988400
    72  C          0.40415110       0.80144000       0.84011600
    73  H          0.40010000       0.64870000       0.29740000
    74  H          0.59990000       0.14870000       0.20260000
    75  H          0.59990000       0.35130000       0.70260000
    76  H          0.40010000       0.85130000       0.79740000
    77  C          0.48998100       0.86607000       0.37467600
    78  C          0.51001900       0.36607000       0.12532400
    79  C          0.51001900       0.13393000       0.62532400
    80  C          0.48998100       0.63393000       0.87467600
    81  H          0.54530000       0.93480000       0.35610000
    82  H          0.45470000       0.43480000       0.14390000
    83  H          0.45470000       0.06520000       0.64390000
    84  H          0.54530000       0.56520000       0.85610000
    85  C          0.49736900       0.93927000       0.43875600
    86  C          0.50263100       0.43927000       0.06124400
    87  C          0.50263100       0.06073000       0.56124400
    88  C          0.49736900       0.56073000       0.93875600
    89  C          0.58696900       0.16803000       0.53396600
    90  C          0.41303100       0.66803000       0.96603400
    91  C          0.41303100       0.83197000       0.46603400
    92  C          0.58696900       0.33197000       0.03396600
    93  C          0.67581100       0.34133000       0.57229600
    94  C          0.32418900       0.84133000       0.92770400
    95  C          0.32418900       0.65867000       0.42770400
    96  C          0.67581100       0.15867000       0.07229600
    97  H          0.73240000       0.41360000       0.55510000
    98  H          0.26760000       0.91360000       0.94490000
    99  H          0.26760000       0.58640000       0.44490000
   100  H          0.73240000       0.08640000       0.05510000
   101  C          0.68019110       0.40414000       0.63351600
   102  C          0.31980890       0.90414000       0.86648400
   103  C          0.31980890       0.59586000       0.36648400
   104  C          0.68019110       0.09586000       0.13351600
   105  H          0.74030000       0.51800000       0.65890000
   106  H          0.25970000       0.01800000       0.84110000
   107  H          0.25970000       0.48200000       0.34110000
   108  H          0.74030000      -0.01800000       0.15890000
