data_NUKYIC
_symmetry_space_group_name_H-M    'P1'
_symmetry_Int_Tables_number       1
loop_
_symmetry_equiv_pos_site_id
_symmetry_equiv_pos_as_xyz
1 x,y,z
_cell_length_a                   5.01101
_cell_length_b                   5.33791
_cell_length_c                   24.03486
_cell_angle_alpha                93.0361
_cell_angle_beta                 92.7531
_cell_angle_gamma                92.1891
loop_
_atom_site_label
_atom_site_type_symbol
_atom_site_fract_x
_atom_site_fract_y
_atom_site_fract_z
     1  O          0.87035830       0.57741170       0.30422400
     2  O          0.12964170       0.42258830       0.69577600
     3  N          0.95248000       0.08162000       0.16829500
     4  N          0.04752000       0.91838000       0.83170500
     5  N          0.30362000       0.55452000       0.33207500
     6  N          0.69638000       0.44548000       0.66792500
     7  H          0.29060000       0.67440000       0.35820000
     8  H          0.70940000       0.32560000       0.64180000
     9  H          0.45730000       0.48330000       0.32770000
    10  H          0.54270000       0.51670000       0.67230000
    11  C          0.12292000       0.27792000       0.25538500
    12  C          0.87708000       0.72208000       0.74461500
    13  C          0.32162000       0.10362000       0.25886500
    14  C          0.67838000       0.89638000       0.74113500
    15  H          0.44800000       0.11110000       0.28970000
    16  H          0.55200000       0.88890000       0.71030000
    17  C          0.33133000       0.91868000       0.21631600
    18  C          0.66867000       0.08132000       0.78368400
    19  H          0.46510000       0.79740000       0.21740000
    20  H          0.53490000       0.20260000       0.78260000
    21  C          0.14323000       0.91358000       0.17222600
    22  C          0.85677000       0.08642000       0.82777400
    23  H          0.14950000       0.78520000       0.14340000
    24  H          0.85050000       0.21480000       0.85660000
    25  C          0.94408000       0.26042000       0.20933500
    26  C          0.05592000       0.73958000       0.79066500
    27  H          0.80970000       0.38060000       0.20680000
    28  H          0.19030000       0.61940000       0.79320000
    29  C          0.09212000       0.48112000       0.29932500
    30  C          0.90788000       0.51888000       0.70067500
    31  O          0.59062000       0.08361170       0.08203400
    32  O          0.40938000       0.91638830       0.91796600
    33  H          0.71130000       0.08930000       0.11298000
    34  H          0.28870000       0.91070000       0.88702000
    35  O          0.45882000       0.44511180       0.12069400
    36  O          0.54118000       0.55488820       0.87930600
    37  C          0.43812000       0.28142000       0.08359500
    38  C          0.56188000       0.71858000       0.91640500
    39  C          0.23853000       0.27162000       0.03474500
    40  C          0.76147000       0.72838000       0.96525500
    41  H          0.10740000       0.13120000       0.03890000
    42  H          0.89260000       0.86880000       0.96110000
    43  H          0.33360000       0.23310000       0.00040000
    44  H          0.66640000       0.76690000      -0.00040000
    45  C          0.08632000       0.50912000       0.02711500
    46  C          0.91368000       0.49088000       0.97288500
    47  H          0.21500000       0.65440000       0.02680000
    48  H          0.78500000       0.34560000       0.97320000
    49  H         -0.02890000       0.53760000       0.05900000
    50  H          0.02890000       0.46240000       0.94100000
    51  O          0.77908000      -0.00872000       0.36201500
    52  O          0.22092000       0.00872000       0.63798500
    53  H          0.83760000       0.85460000       0.34428000
    54  H          0.16240000       0.14540000       0.65572000
    55  O          0.16302000       0.96731810       0.41150400
    56  O          0.83698000       0.03268190       0.58849600
    57  C          0.95137000       0.06422000       0.40374500
    58  C          0.04863000       0.93578000       0.59625500
    59  C          0.85137000       0.27483000       0.43996600
    60  C          0.14863000       0.72517000       0.56003400
    61  H          0.70150000       0.20860000       0.46100000
    62  H          0.29850000       0.79140000       0.53900000
    63  H          0.78010000       0.40330000       0.41570000
    64  H          0.21990000       0.59670000       0.58430000
    65  C          0.05993000       0.40012000       0.48100500
    66  C          0.94007000       0.59988000       0.51899500
    67  H          0.20400000       0.47880000       0.46030000
    68  H          0.79600000       0.52120000       0.53970000
    69  H          0.14010000       0.27150000       0.50410000
    70  H          0.85990000       0.72850000       0.49590000
