data_NUKZAV
_symmetry_space_group_name_H-M    'P1'
_symmetry_Int_Tables_number       1
loop_
_symmetry_equiv_pos_site_id
_symmetry_equiv_pos_as_xyz
1 x,y,z
_cell_length_a                   4.953701
_cell_length_b                   35.28936
_cell_length_c                   8.71802
_cell_angle_alpha                90.0
_cell_angle_beta                 94.83201
_cell_angle_gamma                90.0
loop_
_atom_site_label
_atom_site_type_symbol
_atom_site_fract_x
_atom_site_fract_y
_atom_site_fract_z
     1  O          0.87454000       0.30154400       0.50362000
     2  O          0.12546000       0.80154400      -0.00362000
     3  O          0.12546000       0.69845600       0.49638000
     4  O          0.87454000       0.19845600       0.00362000
     5  N          0.65265000       0.19219800       0.59353000
     6  N          0.34735000       0.69219800       0.90647000
     7  N          0.34735000       0.80780200       0.40647000
     8  N          0.65265000       0.30780200       0.09353000
     9  N          0.52934000       0.32696700       0.61872000
    10  N          0.47066000       0.82696700       0.88128000
    11  N          0.47066000       0.67303300       0.38128000
    12  N          0.52934000       0.17303300       0.11872000
    13  H          0.57400000       0.35000000       0.59150000
    14  H          0.42600000       0.85000000       0.90850000
    15  H          0.42600000       0.65000000       0.40850000
    16  H          0.57400000       0.15000000       0.09150000
    17  H          0.38840000       0.32350000       0.67220000
    18  H          0.61160000       0.82350000       0.82780000
    19  H          0.61160000       0.67650000       0.32780000
    20  H          0.38840000       0.17650000       0.17220000
    21  C          0.45597000       0.18632800       0.68664000
    22  C          0.54403000       0.68632800       0.81336000
    23  C          0.54403000       0.81367200       0.31336000
    24  C          0.45597000       0.31367200       0.18664000
    25  H          0.40960000       0.16090000       0.70950000
    26  H          0.59040000       0.66090000       0.79050000
    27  H          0.59040000       0.83910000       0.29050000
    28  H          0.40960000       0.33910000       0.20950000
    29  C          0.31755000       0.21516110       0.75103000
    30  C          0.68245000       0.71516110       0.74897000
    31  C          0.68245000       0.78483890       0.24897000
    32  C          0.31755000       0.28483890       0.25103000
    33  H          0.17820000       0.20980000       0.81620000
    34  H          0.82180000       0.70980000       0.68380000
    35  H          0.82180000       0.79020000       0.18380000
    36  H          0.17820000       0.29020000       0.31620000
    37  C          0.38406000       0.25192100       0.71933000
    38  C          0.61594000       0.75192100       0.78067000
    39  C          0.61594000       0.74807900       0.28067000
    40  C          0.38406000       0.24807900       0.21933000
    41  H          0.29060000       0.27230000       0.76230000
    42  H          0.70940000       0.77230000       0.73770000
    43  H          0.70940000       0.72770000       0.23770000
    44  H          0.29060000       0.22770000       0.26230000
    45  C          0.58876000       0.25907900       0.62393000
    46  C          0.41124000       0.75907900       0.87607000
    47  C          0.41124000       0.74092100       0.37607000
    48  C          0.58876000       0.24092100       0.12393000
    49  C          0.71555000       0.22805120       0.56353000
    50  C          0.28445000       0.72805120       0.93647000
    51  C          0.28445000       0.77194880       0.43647000
    52  C          0.71555000       0.27194880       0.06353000
    53  H          0.85470000       0.23260000       0.49720000
    54  H          0.14530000       0.73260000       0.00280000
    55  H          0.14530000       0.76740000       0.50280000
    56  H          0.85470000       0.26740000      -0.00280000
    57  C          0.67336000       0.29770900       0.57943000
    58  C          0.32664000       0.79770900       0.92057000
    59  C          0.32664000       0.70229100       0.42057000
    60  C          0.67336000       0.20229100       0.07943000
    61  O          0.10893000       0.33107600       0.84172000
    62  O          0.89107000       0.83107600       0.65828000
    63  O          0.89107000       0.66892400       0.15828000
    64  O          0.10893000       0.16892400       0.34172000
    65  O          0.87854000       0.36826500      -0.00968000
    66  O          0.12146000       0.86826500       0.50968000
    67  O          0.12146000       0.63173500       0.00968000
    68  O          0.87854000       0.13173500       0.49032000
    69  H          0.79650000       0.34398000       0.02430000
    70  H          0.20350000       0.84398000       0.47570000
    71  H          0.20350000       0.65602000       0.97570000
    72  H          0.79650000       0.15602000       0.52430000
    73  O          0.94834000       0.63639700       0.60972000
    74  O          0.05166000       0.13639700       0.89028000
    75  O          0.05166000       0.36360300       0.39028000
    76  O          0.94834000       0.86360300       0.10972000
    77  H          0.01950000       0.65768000       0.56330000
    78  H         -0.01950000       0.15768000       0.93670000
    79  H         -0.01950000       0.34232000       0.43670000
    80  H          0.01950000       0.84232000       0.06330000
    81  O          0.28954000       0.60294500       0.53142000
    82  O          0.71046000       0.10294500       0.96858000
    83  O          0.71046000       0.39705500       0.46858000
    84  O          0.28954000       0.89705500       0.03142000
    85  C          0.05516000       0.36262100       0.88834000
    86  C          0.94484000       0.86262100       0.61166000
    87  C          0.94484000       0.63737900       0.11166000
    88  C          0.05516000       0.13737900       0.38834000
    89  C          0.18825000       0.39811800       0.83763000
    90  C          0.81175000       0.89811800       0.66237000
    91  C          0.81175000       0.60188200       0.16237000
    92  C          0.18825000       0.10188200       0.33763000
    93  H          0.25370000       0.39340000       0.73510000
    94  H          0.74630000       0.89340000       0.76490000
    95  H          0.74630000       0.60660000       0.26490000
    96  H          0.25370000       0.10660000       0.23510000
    97  H          0.34910000       0.40310000       0.91000000
    98  H          0.65090000       0.90310000       0.59000000
    99  H          0.65090000       0.59690000       0.09000000
   100  H          0.34910000       0.09690000       0.41000000
   101  C          0.01475000       0.43351700       0.82733000
   102  C         -0.01475000       0.93351700       0.67267000
   103  C         -0.01475000       0.56648300       0.17267000
   104  C          0.01475000       0.06648300       0.32733000
   105  H          0.95190000       0.43890000       0.92990000
   106  H          0.04810000       0.93890000       0.57010000
   107  H          0.04810000       0.56110000       0.07010000
   108  H          0.95190000       0.06110000       0.42990000
   109  H          0.85260000       0.42880000       0.75540000
   110  H          0.14740000       0.92880000       0.74460000
   111  H          0.14740000       0.57120000       0.24460000
   112  H          0.85260000       0.07120000       0.25540000
   113  C          0.16325000       0.46801800       0.77293000
   114  C          0.83675000       0.96801800       0.72707000
   115  C          0.83675000       0.53198200       0.22707000
   116  C          0.16325000       0.03198200       0.27293000
   117  H          0.32070000       0.47330000       0.84750000
   118  H          0.67930000       0.97330000       0.65250000
   119  H          0.67930000       0.52670000       0.15250000
   120  H          0.32070000       0.02670000       0.34750000
   121  H          0.23350000       0.46210000       0.67270000
   122  H          0.76650000       0.96210000       0.82730000
   123  H          0.76650000       0.53790000       0.32730000
   124  H          0.23350000       0.03790000       0.17270000
   125  C         -0.00955000       0.50336700       0.75493000
   126  C          0.00955000       0.00336700       0.74507000
   127  C          0.00955000       0.49663300       0.24507000
   128  C         -0.00955000      -0.00336700       0.25493000
   129  H          0.92860000       0.51020000       0.85640000
   130  H          0.07140000       0.01020000       0.64360000
   131  H          0.07140000       0.48980000       0.14360000
   132  H          0.92860000       0.98980000       0.35640000
   133  H          0.82770000       0.49770000       0.68480000
   134  H          0.17230000      -0.00230000       0.81520000
   135  H          0.17230000       0.50230000       0.31520000
   136  H          0.82770000       0.00230000       0.18480000
   137  C          0.13585000       0.53713700       0.69233000
   138  C          0.86415000       0.03713700       0.80767000
   139  C          0.86415000       0.46286300       0.30767000
   140  C          0.13585000       0.96286300       0.19233000
   141  H          0.30020000       0.54260000       0.76130000
   142  H          0.69980000       0.04260000       0.73870000
   143  H          0.69980000       0.45740000       0.23870000
   144  H          0.30020000       0.95740000       0.26130000
   145  H          0.19450000       0.53060000       0.58980000
   146  H          0.80550000       0.03060000       0.91020000
   147  H          0.80550000       0.46940000       0.41020000
   148  H          0.19450000       0.96940000       0.08980000
   149  C          0.96165000       0.57240800       0.67763000
   150  C          0.03835000       0.07240800       0.82237000
   151  C          0.03835000       0.42759200       0.32237000
   152  C          0.96165000       0.92759200       0.17763000
   153  H          0.78770000       0.56600000       0.61910000
   154  H          0.21230000       0.06600000       0.88090000
   155  H          0.21230000       0.43400000       0.38090000
   156  H          0.78770000       0.93400000       0.11910000
   157  H          0.92050000       0.58050000       0.78190000
   158  H          0.07950000       0.08050000       0.71810000
   159  H          0.07950000       0.41950000       0.21810000
   160  H          0.92050000       0.91950000       0.28190000
   161  C          0.08688000       0.60482900       0.60023000
   162  C          0.91312000       0.10482900       0.89977000
   163  C          0.91312000       0.39517100       0.39977000
   164  C          0.08688000       0.89517100       0.10023000
