data_NUMHOU
_symmetry_space_group_name_H-M    'P1'
_symmetry_Int_Tables_number       1
loop_
_symmetry_equiv_pos_site_id
_symmetry_equiv_pos_as_xyz
1 x,y,z
_cell_length_a                   7.1563
_cell_length_b                   13.5385
_cell_length_c                   15.4066
_cell_angle_alpha                90.0
_cell_angle_beta                 90.0
_cell_angle_gamma                90.0
loop_
_atom_site_label
_atom_site_type_symbol
_atom_site_fract_x
_atom_site_fract_y
_atom_site_fract_z
     1  Br         0.06812700       0.57142400       0.17536300
     2  Br         0.43187300       0.42857600       0.67536300
     3  Br         0.93187300       0.07142400       0.32463700
     4  Br         0.56812700       0.92857600       0.82463700
     5  S          0.51258130       0.85223800       0.38623700
     6  S         -0.01258130       0.14776200       0.88623700
     7  S          0.48741870       0.35223800       0.11376300
     8  S          0.01258130       0.64776200       0.61376300
     9  O          0.32424000       0.82843000       0.36562000
    10  O          0.17576000       0.17157000       0.86562000
    11  O          0.67576000       0.32843000       0.13438000
    12  O          0.82424000       0.67157000       0.63438000
    13  C          0.59045000       0.69673000       0.27772000
    14  C          0.90955000       0.30327000       0.77772000
    15  C          0.40955000       0.19673000       0.22228000
    16  C          0.09045000       0.80327000       0.72228000
    17  H          0.46280000       0.68380000       0.27820000
    18  H          0.03720000       0.31620000       0.77820000
    19  H          0.53720000       0.18380000       0.22180000
    20  H          0.96280000       0.81620000       0.72180000
    21  O          0.57404000       0.95202000       0.37722000
    22  O          0.92596000       0.04798000       0.87722000
    23  O          0.42596000       0.45202000       0.12278000
    24  O          0.07404000       0.54798000       0.62278000
    25  C          0.89695000       0.65613000       0.23292000
    26  C          0.60305000       0.34387000       0.73292000
    27  C          0.10305000       0.15613000       0.26708000
    28  C          0.39695000       0.84387000       0.76708000
    29  C          0.85095000       0.79553000       0.32303000
    30  C          0.64905000       0.20447000       0.82303000
    31  C          0.14905000       0.29553000       0.17697000
    32  C          0.35095000       0.70447000       0.67697000
    33  H          0.89870000       0.84880000       0.35400000
    34  H          0.60130000       0.15120000       0.85400000
    35  H          0.10130000       0.34880000       0.14600000
    36  H          0.39870000       0.65120000       0.64600000
    37  N          0.54396000       0.82293000       0.48602000
    38  N          0.95604000       0.17707000       0.98602000
    39  N          0.45604000       0.32293000       0.01398000
    40  N          0.04396000       0.67707000       0.51398000
    41  C          0.65965000       0.77673000       0.32343000
    42  C          0.84035000       0.22327000       0.82343000
    43  C          0.34035000       0.27673000       0.17657000
    44  C          0.15965000       0.72327000       0.67657000
    45  C          0.96786000       0.73583000       0.27733000
    46  C          0.53214000       0.26417000       0.77733000
    47  C          0.03214000       0.23583000       0.22267000
    48  C          0.46786000       0.76417000       0.72267000
    49  H          0.09530000       0.74880000       0.27600000
    50  H          0.40470000       0.25120000       0.77600000
    51  H          0.90470000       0.24880000       0.22400000
    52  H          0.59530000       0.75120000       0.72400000
    53  C          0.70816000       0.63643000       0.23172000
    54  C          0.79184000       0.36357000       0.73172000
    55  C          0.29184000       0.13643000       0.26828000
    56  C          0.20816000       0.86357000       0.76828000
    57  H          0.66130000       0.58310000       0.20030000
    58  H          0.83870000       0.41690000       0.70030000
    59  H          0.33870000       0.08310000       0.29970000
    60  H          0.16130000       0.91690000       0.79970000
    61  H          0.52560000       0.77330000       0.49530000
    62  H          0.97440000       0.22670000      -0.00470000
    63  H          0.47440000       0.27330000       0.00470000
    64  H          0.02560000       0.72670000       0.50470000
    65  H          0.66260000       0.84130000       0.50730000
    66  H          0.83740000       0.15870000       0.00730000
    67  H          0.33740000       0.34130000      -0.00730000
    68  H          0.16260000       0.65870000       0.49270000
    69  O          0.08044000       0.38512000       0.97299190
    70  O          0.41956000       0.61488000       0.47299190
    71  O          0.91956000       0.88512000       0.52700810
    72  O          0.58044000       0.11488000       0.02700810
    73  C         -0.00614000       0.45473000       0.94083000
    74  C          0.50614000       0.54527000       0.44083000
    75  C          0.00614000       0.95473000       0.55917000
    76  C          0.49386000       0.04527000       0.05917000
    77  C          0.68657000       0.53764000       0.91794000
    78  C          0.81343000       0.46236000       0.41794000
    79  C          0.31343000       0.03764000       0.58206000
    80  C          0.18657000       0.96236000       0.08206000
    81  H          0.55910000       0.52130000       0.93400000
    82  H          0.94090000       0.47870000       0.43400000
    83  H          0.44090000       0.02130000       0.56600000
    84  H          0.05910000       0.97870000       0.06600000
    85  H          0.69440000       0.53500000       0.85510000
    86  H          0.80560000       0.46500000       0.35510000
    87  H          0.30560000       0.03500000       0.64490000
    88  H          0.19440000       0.96500000       0.14490000
    89  C          0.89408000       0.68663000       0.90254000
    90  C          0.60592000       0.31337000       0.40254000
    91  C          0.10592000       0.18663000       0.59746000
    92  C          0.39408000       0.81337000       0.09746000
    93  H          0.86980000       0.68950000       0.84060000
    94  H          0.63020000       0.31050000       0.34060000
    95  H          0.13020000       0.18950000       0.65940000
    96  H          0.36980000       0.81050000       0.15940000
    97  H          0.90620000       0.75400000       0.92310000
    98  H          0.59380000       0.24600000       0.42310000
    99  H          0.09380000       0.25400000       0.57690000
   100  H          0.40620000       0.74600000       0.07690000
   101  C          0.08526000       0.52943000       0.88363000
   102  C          0.41474000       0.47057000       0.38363000
   103  C          0.91474000       0.02943000       0.61637000
   104  C          0.58526000       0.97057000       0.11637000
   105  H          0.02590000       0.52710000       0.82700000
   106  H          0.47410000       0.47290000       0.32700000
   107  H          0.97410000       0.02710000       0.67300000
   108  H          0.52590000       0.97290000       0.17300000
   109  H          0.21510000       0.51090000       0.87590000
   110  H          0.28490000       0.48910000       0.37590000
   111  H          0.78490000       0.01090000       0.62410000
   112  H          0.71510000       0.98910000       0.12410000
   113  C          0.07808000       0.63423000       0.91663000
   114  C          0.42192000       0.36577000       0.41663000
   115  C          0.92192000       0.13423000       0.58337000
   116  C          0.57808000       0.86577000       0.08337000
   117  H          0.17580000       0.67180000       0.88820000
   118  H          0.32420000       0.32820000       0.38820000
   119  H          0.82420000       0.17180000       0.61180000
   120  H          0.67580000       0.82820000       0.11180000
   121  H          0.10500000       0.63380000       0.97830000
   122  H          0.39500000       0.36620000       0.47830000
   123  H          0.89500000       0.13380000       0.52170000
   124  H          0.60500000       0.86620000       0.02170000
   125  N          0.81085000       0.46303000       0.95393000
   126  N          0.68915000       0.53697000       0.45393000
   127  N          0.18915000       0.96303000       0.54607000
   128  N          0.31085000       0.03697000       0.04607000
   129  C          0.72648000       0.64014000       0.94654000
   130  C          0.77352000       0.35986000       0.44654000
   131  C          0.27352000       0.14014000       0.55346000
   132  C          0.22648000       0.85986000       0.05346000
   133  H          0.74720000       0.64000000       0.00870000
   134  H          0.75280000       0.36000000       0.50870000
   135  H          0.25280000       0.14000000       0.49130000
   136  H          0.24720000       0.86000000      -0.00870000
   137  H          0.61730000       0.68060000       0.93510000
   138  H          0.88270000       0.31940000       0.43510000
   139  H          0.38270000       0.18060000       0.56490000
   140  H          0.11730000       0.81940000       0.06490000
   141  H          0.76460000       0.41330000       0.97930000
   142  H          0.73540000       0.58670000       0.47930000
   143  H          0.23540000       0.91330000       0.52070000
   144  H          0.26460000       0.08670000       0.02070000
