data_NUMYOM
_symmetry_space_group_name_H-M    'P1'
_symmetry_Int_Tables_number       1
loop_
_symmetry_equiv_pos_site_id
_symmetry_equiv_pos_as_xyz
1 x,y,z
_cell_length_a                   6.607919
_cell_length_b                   7.473119
_cell_length_c                   18.7515
_cell_angle_alpha                87.1609
_cell_angle_beta                 84.6239
_cell_angle_gamma                83.3809
loop_
_atom_site_label
_atom_site_type_symbol
_atom_site_fract_x
_atom_site_fract_y
_atom_site_fract_z
     1  Br         0.32492800       0.80130300       0.03913300
     2  Br         0.67507200       0.19869700       0.96086700
     3  O          0.67446000       0.08064000       0.32487130
     4  O          0.32554000       0.91936000       0.67512870
     5  H          0.61330000       0.10860000       0.36620000
     6  H          0.38670000       0.89140000       0.63380000
     7  O          0.96456000       0.07484000       0.37504140
     8  O          0.03544000       0.92516000       0.62495860
     9  C          0.87375000       0.05484000       0.32402180
    10  C          0.12625000       0.94516000       0.67597820
    11  C          0.97956000      -0.00484000       0.25383160
    12  C          0.02044000       0.00484000       0.74616840
    13  C          0.87595000      -0.00824000       0.19359170
    14  C          0.12405000       0.00824000       0.80640830
    15  H          0.73600600       0.02753300       0.19623900
    16  H          0.26399400       0.97246700       0.80376100
    17  C          0.97725000       0.93585000       0.12913180
    18  C          0.02275000       0.06415000       0.87086820
    19  H          0.90649100       0.93411900       0.08863600
    20  H          0.09350900       0.06588100       0.91136400
    21  C          0.18336000       0.88316000       0.12592000
    22  C          0.81664000       0.11684000       0.87408000
    23  C          0.28905000       0.88695000       0.18482000
    24  C          0.71095000       0.11305000       0.81518000
    25  H          0.42915800       0.85208700       0.18166800
    26  H          0.57084200       0.14791300       0.81833200
    27  C          0.18785000       0.94286000       0.24892000
    28  C          0.81215000       0.05714000       0.75108000
    29  H          0.25994700       0.94528100       0.28907000
    30  H          0.74005300       0.05471900       0.71093000
    31  N          0.49564000       0.80204000       0.54926140
    32  N          0.50436000       0.19796000       0.45073860
    33  C          0.37295000       0.76555000       0.50110180
    34  C          0.62705000       0.23445000       0.49889820
    35  H          0.23237500       0.78976300       0.51181400
    36  H          0.76762500       0.21023700       0.48818600
    37  N          0.91524000       0.57163000       0.32687130
    38  N          0.08476000       0.42837000       0.67312870
    39  C          0.44345000       0.69355000       0.43597170
    40  C          0.55655000       0.30645000       0.56402830
    41  H          0.35171100       0.66839300       0.40409600
    42  H          0.64828900       0.33160700       0.59590400
    43  C          0.65185000       0.65894000       0.41841160
    44  C          0.34815000       0.34106000       0.58158840
    45  C          0.77985000       0.70094000       0.46783160
    46  C          0.22015000       0.29906000       0.53216840
    47  H          0.92095000       0.68244700       0.45775900
    48  H          0.07905000       0.31755300       0.54224100
    49  C          0.69685000       0.77015000       0.53197170
    50  C          0.30315000       0.22985000       0.46802830
    51  H          0.78496500       0.79606100       0.56494200
    52  H          0.21503500       0.20393900       0.43505800
    53  C          0.72995000       0.58075000       0.34957170
    54  C          0.27005000       0.41925000       0.65042830
    55  H          0.63350000       0.53750000       0.32291800
    56  H          0.36650000       0.46250000       0.67708200
    57  C         -0.01546000       0.50304000       0.25911150
    58  C          0.01546000       0.49696000       0.74088850
    59  F          0.68303000       0.59693000       0.20280100
    60  F          0.31697000       0.40307000       0.79719900
    61  C          0.87505000       0.51624000       0.19924160
    62  C          0.12495000       0.48376000       0.80075840
    63  F          0.84754000       0.47474000       0.07778110
    64  F          0.15246000       0.52526000       0.92221890
    65  C          0.95965000       0.45525000       0.13354170
    66  C          0.04035000       0.54475000       0.86645830
    67  F          0.23844000       0.31653000       0.06273110
    68  F          0.76156000       0.68347000       0.93726890
    69  C          0.15766000       0.37814000       0.12588170
    70  C          0.84234000       0.62186000       0.87411830
    71  F          0.46423000       0.28843000       0.17603130
    72  F          0.53577000       0.71157000       0.82396870
    73  C          0.27005000       0.36444000       0.18341190
    74  C          0.72995000       0.63556000       0.81658810
    75  F          0.30133000       0.40973000       0.30370110
    76  F          0.69867000       0.59027000       0.69629890
    77  C          0.18565000       0.42644000       0.24850170
    78  C          0.81435000       0.57356000       0.75149830
