data_NUNDOT
_symmetry_space_group_name_H-M    'P1'
_symmetry_Int_Tables_number       1
loop_
_symmetry_equiv_pos_site_id
_symmetry_equiv_pos_as_xyz
1 x,y,z
_cell_length_a                   11.48603
_cell_length_b                   14.01124
_cell_length_c                   15.54615
_cell_angle_alpha                79.86901
_cell_angle_beta                 84.01701
_cell_angle_gamma                87.22901
loop_
_atom_site_label
_atom_site_type_symbol
_atom_site_fract_x
_atom_site_fract_y
_atom_site_fract_z
     1  S          0.54319400       0.36130300       0.59461300
     2  S          0.45680600       0.63869700       0.40538700
     3  P          0.47446400       0.24579300       0.27082300
     4  P          0.52553600       0.75420700       0.72917700
     5  O          0.47922130       0.20076100       0.19282900
     6  O          0.52077870       0.79923900       0.80717100
     7  N          0.22781140       0.97915880       0.81129100
     8  N          0.77218860       0.02084120       0.18870900
     9  N          0.45530140       0.16274110       0.36358100
    10  N          0.54469860       0.83725890       0.63641900
    11  N          0.59941140       0.30240110       0.27614100
    12  N          0.40058860       0.69759890       0.72385900
    13  N          0.94308160       0.68075130       0.37884120
    14  N          0.05691840       0.31924870       0.62115880
    15  C          0.93345810       0.98014820       0.73090150
    16  C          0.06654190       0.01985180       0.26909850
    17  H          0.88257300       0.02333100       0.69705100
    18  H          0.11742700       0.97666900       0.30294900
    19  C          0.35053180       0.93663850       0.93184140
    20  C          0.64946820       0.06336150       0.06815860
    21  H          0.40974200       0.91243000       0.89320600
    22  H          0.59025800       0.08757000       0.10679400
    23  C          0.93046180       0.81814150       0.45714140
    24  C          0.06953820       0.18185850       0.54285860
    25  H          0.87284100       0.84771400       0.42054300
    26  H          0.12715900       0.15228600       0.57945700
    27  C          0.36056170       0.33722140       0.27584120
    28  C          0.63943830       0.66277860       0.72415880
    29  C          0.04194180       0.01115160       0.74457130
    30  C          0.95805820       0.98884840       0.25542870
    31  H          0.06429900       0.07561100       0.72094500
    32  H          0.93570100       0.92438900       0.27905500
    33  C          0.98082180       0.72897140       0.44551140
    34  C          0.01917820       0.27102860       0.55448860
    35  C          0.96392000       0.86436160       0.52208150
    36  C          0.03608000       0.13563840       0.47791850
    37  H          0.92877000       0.92532200       0.53019400
    38  H          0.07123000       0.07467800       0.46980600
    39  C          0.24530180       0.97266860       0.90208120
    40  C          0.75469820       0.02733140       0.09791880
    41  C          0.24541190       0.31077150       0.30402140
    42  C          0.75458810       0.68922850       0.69597860
    43  H          0.22930400       0.24600700       0.33137700
    44  H          0.77069600       0.75399300       0.66862300
    45  C          0.56801160       0.33624130       0.43136120
    46  C          0.43198840       0.66375870       0.56863880
    47  C          0.39872170       0.01757140       0.30148130
    48  C          0.60127830       0.98242860       0.69851870
    49  H          0.42983500       0.04115800       0.24295800
    50  H          0.57016500       0.95884200       0.75704200
    51  C          0.11794170       0.94812860       0.79273120
    52  C          0.88205830       0.05187140       0.20726880
    53  C          0.44285160       0.18338130       0.44961120
    54  C          0.55714840       0.81661870       0.55038880
    55  C          0.34696180       0.92778860       0.32408140
    56  C          0.65303820       0.07221140       0.67591860
    57  H          0.34287200       0.88892600       0.28025900
    58  H          0.65712800       0.11107400       0.71974100
    59  C          0.61992160       0.35350130       0.34354120
    60  C          0.38007840       0.64649870       0.65645880
    61  C          0.49116160       0.26230130       0.47772120
    62  C          0.50883840       0.73769870       0.52227880
    63  C          0.60330170       0.39524140       0.48676130
    64  C          0.39669830       0.60475860       0.51323870
    65  C          0.70457160       0.42252140       0.31338130
    66  C          0.29542840       0.57747860       0.68661870
    67  C          0.40302160       0.07130130       0.36799130
    68  C          0.59697840       0.92869870       0.63200870
    69  C          0.67369170       0.34280130       0.20060130
    70  C          0.32630830       0.65719870       0.79939870
    71  C          0.89878000       0.88748810       0.76587160
    72  C          0.10122000       0.11251190       0.23412840
    73  H          0.82403900       0.86694300       0.75684000
    74  H          0.17596100       0.13305700       0.24316000
    75  C          0.74050170       0.41515140       0.22292130
    76  C          0.25949830       0.58484860       0.77707870
    77  C          0.35843160       0.03827130       0.45549120
    78  C          0.64156840       0.96172870       0.54450880
    79  C          0.82776170       0.55191140       0.34612130
    80  C          0.17223830       0.44808860       0.65387870
    81  H          0.86788700       0.55803600       0.28890000
    82  H          0.13211300       0.44196400       0.71110000
    83  C          0.06426190       0.68572150       0.49886150
    84  C          0.93573810       0.31427850       0.50113850
    85  H          0.09812000       0.62400800       0.49185300
    86  H          0.90188000       0.37599200       0.50814700
    87  C          0.30082180       0.89373860       0.41029140
    88  C          0.69917820       0.10626140       0.58970860
    89  H          0.26498200       0.83250300       0.42392500
    90  H          0.73501800       0.16749700       0.57607500
    91  C          0.30652170       0.94761860       0.47581140
    92  C          0.69347830       0.05238140       0.52418860
    93  H          0.27549100       0.92346800       0.53423400
    94  H          0.72450900       0.07653200       0.46576600
    95  C          0.15742000       0.00677160       0.95888140
    96  C          0.84258000      -0.00677160       0.04111860
    97  H          0.08467600       0.03030500       0.93819200
    98  H          0.91532400       0.96969500       0.06180800
    99  C          0.28979160       0.04999140       0.75045120
   100  C          0.71020840       0.95000860       0.24954880
   101  C          0.33725180       0.12864150       0.77856130
   102  C          0.66274820       0.87135850       0.22143870
   103  H          0.32997000       0.13254000       0.83928600
   104  H          0.67003000       0.86746000       0.16071400
   105  C          0.38391160       0.11025130       0.50688120
   106  C          0.61608840       0.88974870       0.49311880
   107  C          0.68517160       0.46998130       0.45882130
   108  C          0.31482840       0.53001870       0.54117870
   109  C          0.68425190       0.31890150       0.11683130
   110  C          0.31574810       0.68109850       0.88316870
   111  H          0.63736800       0.27080000       0.10285400
   112  H          0.36263200       0.72920000       0.89714600
   113  C          0.47117160       0.26622140       0.56683130
   114  C          0.52882840       0.73377860       0.43316870
   115  C          0.39390180       0.19973150       0.71923130
   116  C          0.60609820       0.80026850       0.28076870
   117  H          0.42403300       0.25283300       0.73947500
   118  H          0.57596700       0.74716700       0.26052500
   119  C          0.15462000       0.37913180       0.29203170
   120  C          0.84538000       0.62086820       0.70796830
   121  H          0.07606600       0.36059700       0.30986400
   122  H          0.92393400       0.63940300       0.69013600
   123  C          0.28252000       0.97237810       0.07502150
   124  C          0.71748000       0.02762190       0.92497850
   125  H          0.29620500       0.97392200       0.13396700
   126  H          0.70379500       0.02607800       0.86603300
   127  C          0.40833170       0.19555140       0.62867120
   128  C          0.59166830       0.80444860       0.37132880
   129  C          0.04812190       0.82203160       0.57490150
   130  C          0.95187810       0.17796840       0.42509850
   131  H          0.07146500       0.85372900       0.61925700
   132  H          0.92853500       0.14627100       0.38074300
   133  C          0.38307190       0.43344150       0.23801150
   134  C          0.61692810       0.56655850       0.76198850
   135  H          0.46125300       0.45233700       0.21932600
   136  H          0.53874700       0.54766300       0.78067400
   137  C          0.36922000       0.93612830       0.01939150
   138  C          0.63078000       0.06387170       0.98060850
   139  H          0.44099700       0.91100900       0.04071200
   140  H          0.55900300       0.08899100       0.95928800
   141  C          0.85680170       0.61146150       0.40273140
   142  C          0.14319830       0.38853850       0.59726860
   143  C          0.08322000       0.85437840       0.82741150
   144  C          0.91678000       0.14562160       0.17258850
   145  H          0.13451200       0.81047300       0.86021500
   146  H          0.86548800       0.18952700       0.13978500
   147  C          0.97368000       0.82468820       0.81423180
   148  C          0.02632000       0.17531180       0.18576820
   149  H          0.95024700       0.76072100       0.83864800
   150  H          0.04975300       0.23927900       0.16135200
   151  C          0.30553160       0.04324140       0.66191130
   152  C          0.69446840       0.95675860       0.33808870
   153  H          0.27598100       0.98906300       0.64296800
   154  H          0.72401900       0.01093700       0.35703200
   155  C          0.36425160       0.11475130       0.59937120
   156  C          0.63574840       0.88524870       0.40062880
   157  C          0.82262000       0.46257170       0.15799140
   158  C          0.17738000       0.53742830       0.84200860
   159  H          0.86951300       0.51129000       0.17091000
   160  H          0.13048700       0.48871000       0.82909000
   161  C          0.74041170       0.48276130       0.37142130
   162  C          0.25958830       0.51723870       0.62857870
   163  C          0.17742000       0.47380180       0.25440180
   164  C          0.82258000       0.52619820       0.74559820
   165  H          0.11479400       0.52034600       0.24670700
   166  H          0.88520600       0.47965400       0.75329300
   167  C          0.71619180       0.53123150       0.51546140
   168  C          0.28380820       0.46876850       0.48453860
   169  H          0.67966000       0.52378200       0.57385300
   170  H          0.32034000       0.47621800       0.42614700
   171  C          0.76562000       0.36784160       0.05463140
   172  C          0.23438000       0.63215840       0.94536860
   173  H          0.77446900       0.35338000      -0.00318900
   174  H          0.22553100       0.64662000       0.00318900
   175  C         -0.00656810       0.71040140       0.29106150
   176  C          0.00656810       0.28959860       0.70893850
   177  C          0.17632000       0.00629190       0.04539150
   178  C          0.82368000      -0.00629190       0.95460850
   179  H          0.11637400       0.02919400       0.08432300
   180  H          0.88362600       0.97080600       0.91567700
   181  C          0.79744190       0.60078150       0.48807140
   182  C          0.20255810       0.39921850       0.51192860
   183  H          0.81434000       0.64255500       0.52681700
   184  H          0.18566000       0.35744500       0.47318300
   185  C          0.29182000       0.50119170       0.22775180
   186  C          0.70818000       0.49880830       0.77224820
   187  H          0.30737100       0.56663900       0.20238100
   188  H          0.69262900       0.43336100       0.79761900
   189  C          0.11332000       0.72662160       0.27582170
   190  C          0.88668000       0.27337840       0.72417830
   191  H          0.16038300       0.71649300       0.32356500
   192  H          0.83961700       0.28350700       0.67643500
   193  C          0.09815190       0.73341160       0.56288150
   194  C          0.90184810       0.26658840       0.43711850
   195  H          0.15669200       0.70448500       0.59890800
   196  H          0.84330800       0.29551500       0.40109200
   197  C          0.83472000       0.43789180       0.07552150
   198  C          0.16528000       0.56210820       0.92447850
   199  H          0.89114200       0.46927000       0.03205300
   200  H          0.10885800       0.53073000       0.96794700
   201  C          0.92592000       0.72732150       0.22050160
   202  C          0.07408000       0.27267850       0.77949840
   203  H          0.84362200       0.71918600       0.23003800
   204  H          0.15637800       0.28081400       0.76996200
   205  C          0.16373000       0.75741180       0.19132190
   206  C          0.83627000       0.24258820       0.80867810
   207  H          0.24518900       0.76921400       0.18152600
   208  H          0.75481100       0.23078600       0.81847400
   209  C          0.09693000       0.77118190       0.12107180
   210  C          0.90307000       0.22881810       0.87892820
   211  H          0.13212400       0.79085700       0.06298400
   212  H          0.86787600       0.20914300       0.93701600
   213  C          0.97853000       0.75603170       0.13631170
   214  C          0.02147000       0.24396830       0.86368830
   215  H          0.93216900       0.76543800       0.08818100
   216  H          0.06783100       0.23456200       0.91181900
   217  O          0.39724000       0.25813000       0.92072000
   218  O          0.60276000       0.74187000       0.07928000
   219  C          0.30474000       0.32883000       0.03233000
   220  C          0.69526000       0.67117000       0.96767000
   221  H          0.23075600       0.35687700       0.00981200
   222  H          0.76924400       0.64312300       0.99018800
   223  H          0.29674200       0.32146000       0.09710300
   224  H          0.70325800       0.67854000       0.90289700
   225  C          0.40454000       0.38853000      -0.00666000
   226  C          0.59546000       0.61147000       0.00666000
   227  H          0.46463000       0.38494900       0.03500600
   228  H          0.53537000       0.61505100       0.96499400
   229  H          0.37895200       0.45707600       0.97608400
   230  H          0.62104800       0.54292400       0.02391600
   231  C          0.33605000       0.23543000       0.00353000
   232  C          0.66395000       0.76457000      -0.00353000
   233  H          0.38559900       0.19466200       0.04488800
   234  H          0.61440100       0.80533800       0.95511200
   235  H          0.26467600       0.19974000       0.00028300
   236  H          0.73532400       0.80026000      -0.00028300
   237  C          0.45146000       0.34575000       0.91404000
   238  C          0.54854000       0.65425000       0.08596000
   239  H          0.43344500       0.38976900       0.85958200
   240  H          0.56655500       0.61023100       0.14041800
   241  H          0.53735700       0.33526900       0.91271900
   242  H          0.46264300       0.66473100       0.08728100
