data_NUNMAN
_symmetry_space_group_name_H-M    'P1'
_symmetry_Int_Tables_number       1
loop_
_symmetry_equiv_pos_site_id
_symmetry_equiv_pos_as_xyz
1 x,y,z
_cell_length_a                   3.88352
_cell_length_b                   17.20649
_cell_length_c                   24.258214
_cell_angle_alpha                90.0
_cell_angle_beta                 92.9622
_cell_angle_gamma                90.0
loop_
_atom_site_label
_atom_site_type_symbol
_atom_site_fract_x
_atom_site_fract_y
_atom_site_fract_z
     1  Br         0.50959800       0.86785200       0.75911200
     2  Br        -0.00959800       0.36785200       0.74088800
     3  Br         0.49040200       0.13214800       0.24088800
     4  Br         0.00959800       0.63214800       0.25911200
     5  C          0.24598000       0.63670170       0.73308120
     6  C          0.25402000       0.13670170       0.76691880
     7  C          0.75402000       0.36329830       0.26691880
     8  C          0.74598000       0.86329830       0.23308120
     9  C          0.37498000       0.70488180       0.75606120
    10  C          0.12502000       0.20488180       0.74393880
    11  C          0.62502000       0.29511820       0.24393880
    12  C          0.87498000       0.79511820       0.25606120
    13  C          0.35167000       0.77402170       0.72767120
    14  C          0.14833000       0.27402170       0.77232880
    15  C          0.64833000       0.22597830       0.27232880
    16  C          0.85167000       0.72597830       0.22767120
    17  C          0.19538000       0.77233160       0.67535130
    18  C          0.30462000       0.27233160       0.82464870
    19  C          0.80462000       0.22766840       0.32464870
    20  C          0.69538000       0.72766840       0.17535130
    21  C          0.06487000       0.70483170       0.65279120
    22  C          0.43513000       0.20483170       0.84720880
    23  C          0.93513000       0.29516830       0.34720880
    24  C          0.56487000       0.79516830       0.15279120
    25  C          0.08597000       0.63475160       0.68064120
    26  C          0.41403000       0.13475160       0.81935880
    27  C          0.91403000       0.36524840       0.31935880
    28  C          0.58597000       0.86524840       0.18064120
    29  C          0.93508000       0.55978170       0.65619130
    30  C          0.56492000       0.05978170       0.84380870
    31  C          0.06492000       0.44021830       0.34380870
    32  C          0.43508000       0.94021830       0.15619130
    33  F          0.28075000       0.57221100       0.76341700
    34  F          0.21925000       0.07221100       0.73658300
    35  F          0.71925000       0.42778900       0.23658300
    36  F          0.78075000       0.92778900       0.26341700
    37  F          0.52775000       0.70250110       0.80714700
    38  F         -0.02775000       0.20250110       0.69285300
    39  F          0.47225000       0.29749890       0.19285300
    40  F          0.02775000       0.79749890       0.30714700
    41  F          0.16605000       0.83793100       0.64559800
    42  F          0.33395000       0.33793100       0.85440200
    43  F          0.83395000       0.16206900       0.35440200
    44  F          0.66605000       0.66206900       0.14559800
    45  F          0.90225000       0.71005100       0.60280700
    46  F          0.59775000       0.21005100       0.89719300
    47  F          0.09775000       0.28994900       0.39719300
    48  F          0.40225000       0.78994900       0.10280700
    49  O         -0.03204000       0.55307120       0.60433900
    50  O          0.53204000       0.05307120       0.89566100
    51  O          0.03204000       0.44692880       0.39566100
    52  O          0.46796000       0.94692880       0.10433900
    53  H          0.88034900       0.51086200       0.59326600
    54  H          0.61965100       0.01086200       0.90673400
    55  H          0.11965100       0.48913800       0.40673400
    56  H          0.38034900       0.98913800       0.09326600
    57  O          0.79366000       0.51429120       0.68636900
    58  O          0.70634000       0.01429120       0.81363100
    59  O          0.20634000       0.48570880       0.31363100
    60  O          0.29366000       0.98570880       0.18636900
    61  C          0.70517000       0.40662170       0.51692120
    62  C          0.79483000       0.90662170       0.98307880
    63  C          0.29483000       0.59337830       0.48307880
    64  C          0.20517000       0.09337830       0.01692120
    65  H          0.81139000       0.44113500       0.49238600
    66  H          0.68861000       0.94113500       0.00761400
    67  H          0.18861000       0.55886500       0.50761400
    68  H          0.31139000       0.05886500       0.99238600
    69  C          0.59748000       0.33577180       0.49768130
    70  C          0.90252000       0.83577180       0.00231870
    71  C          0.40252000       0.66422820       0.50231870
    72  C          0.09748000       0.16422820      -0.00231870
    73  H          0.62627300       0.32209400       0.46025400
    74  H          0.87372700       0.82209400       0.03974600
    75  H          0.37372700       0.67790600       0.53974600
    76  H          0.12627300       0.17790600       0.96025400
    77  C          0.44557000       0.28352170       0.53273130
    78  C          0.05443000       0.78352170       0.96726870
    79  C          0.55443000       0.71647830       0.46726870
    80  C          0.94557000       0.21647830       0.03273130
    81  C          0.40368000       0.30849180       0.58687140
    82  C          0.09632000       0.80849180       0.91312860
    83  C          0.59632000       0.69150820       0.41312860
    84  C          0.90368000       0.19150820       0.08687140
    85  H          0.29785800       0.27520500       0.61227800
    86  H          0.20214200       0.77520500       0.88772200
    87  H          0.70214200       0.72479500       0.38772200
    88  H          0.79785800       0.22479500       0.11227800
    89  C          0.51568000       0.38151170       0.60346130
    90  C         -0.01568000       0.88151170       0.89653870
    91  C          0.48432000       0.61848830       0.39653870
    92  C          0.01568000       0.11848830       0.10346130
    93  H          0.48408500       0.39793400       0.64025100
    94  H          0.01591500       0.89793400       0.85974900
    95  H          0.51591500       0.60206600       0.35974900
    96  H         -0.01591500       0.10206600       0.14025100
    97  C          0.34538000       0.20714180       0.51076140
    98  C          0.15462000       0.70714180       0.98923860
    99  C          0.65462000       0.79285820       0.48923860
   100  C          0.84538000       0.29285820       0.01076140
   101  H          0.40218600       0.19547700       0.47404400
   102  H          0.09781400       0.69547700       0.02595600
   103  H          0.59781400       0.80452300       0.52595600
   104  H          0.90218600       0.30452300       0.97404400
   105  C          0.18228000       0.15319180       0.53795140
   106  C          0.31772000       0.65319180       0.96204860
   107  C          0.81772000       0.84680820       0.46204860
   108  C          0.68228000       0.34680820       0.03795140
   109  H          0.11997100       0.16557200       0.57428200
   110  H          0.38002900       0.66557200       0.92571800
   111  H          0.88002900       0.83442800       0.42571800
   112  H          0.61997100       0.33442800       0.07428200
   113  C          0.08897000       0.07588160       0.51687130
   114  C          0.41103000       0.57588160       0.98312870
   115  C          0.91103000       0.92411840       0.48312870
   116  C          0.58897000       0.42411840       0.01687130
   117  C          0.16837000       0.04859170       0.46485130
   118  C          0.33163000       0.54859170       0.03514870
   119  C          0.83163000       0.95140830       0.53514870
   120  C          0.66837000       0.45140830       0.96485130
   121  H          0.28299400       0.08191200       0.44052000
   122  H          0.21700600       0.58191200       0.05948000
   123  H          0.71700600       0.91808800       0.55948000
   124  H          0.78299400       0.41808800       0.94052000
   125  C          0.91663000       0.02575170       0.55183120
   126  C          0.58337000       0.52575170       0.94816880
   127  C          0.08337000       0.97424830       0.44816880
   128  C          0.41663000       0.47424830       0.05183120
   129  C          0.68562000       0.00321180       0.64056130
   130  C          0.81438000       0.50321180       0.85943870
   131  C          0.31438000      -0.00321180       0.35943870
   132  C          0.18562000       0.49678820       0.14056130
   133  H          0.46429000       0.98431100       0.62460000
   134  H          0.03571000       0.48431100       0.87540000
   135  H          0.53571000       0.01568900       0.37540000
   136  H         -0.03571000       0.51568900       0.12460000
   137  H          0.64845100       0.03089100       0.67504900
   138  H          0.85154900       0.53089100       0.82495100
   139  H          0.35154900       0.96910900       0.32495100
   140  H          0.14845100       0.46910900       0.17504900
   141  H          0.84035100       0.95904300       0.64811000
   142  H          0.65964900       0.45904300       0.85189000
   143  H          0.15964900       0.04095700       0.35189000
   144  H          0.34035100       0.54095700       0.14811000
   145  N          0.66726000       0.42942140       0.56882100
   146  N          0.83274000       0.92942140       0.93117900
   147  N          0.33274000       0.57057860       0.43117900
   148  N          0.16726000       0.07057860       0.06882100
   149  O          0.83794000       0.05504120       0.60233900
   150  O          0.66206000       0.55504120       0.89766100
   151  O          0.16206000       0.94495880       0.39766100
   152  O          0.33794000       0.44495880       0.10233900
