data_NUQLES
_symmetry_space_group_name_H-M    'P1'
_symmetry_Int_Tables_number       1
loop_
_symmetry_equiv_pos_site_id
_symmetry_equiv_pos_as_xyz
1 x,y,z
_cell_length_a                   7.9865
_cell_length_b                   16.7481
_cell_length_c                   8.2765
_cell_angle_alpha                90.0
_cell_angle_beta                 90.4748
_cell_angle_gamma                90.0
loop_
_atom_site_label
_atom_site_type_symbol
_atom_site_fract_x
_atom_site_fract_y
_atom_site_fract_z
     1  H          0.16030000       0.48951400       0.79530000
     2  H          0.33970000       0.98951400       0.70470000
     3  H          0.83970000       0.51048600       0.20470000
     4  H          0.66030000       0.01048600       0.29530000
     5  H          0.24130000       0.40621400       0.76320000
     6  H          0.25870000       0.90621400       0.73680000
     7  H          0.75870000       0.59378600       0.23680000
     8  H          0.74130000       0.09378600       0.26320000
     9  N          0.33407150       0.53793700       0.26841150
    10  N          0.16592850       0.03793700       0.23158850
    11  N          0.66592850       0.46206300       0.73158850
    12  N          0.83407150       0.96206300       0.76841150
    13  C          0.24345160       0.48060800       0.57361160
    14  C          0.25654840       0.98060800       0.92638840
    15  C          0.75654840       0.51939200       0.42638840
    16  C          0.74345160       0.01939200       0.07361160
    17  N          0.20163180       0.45446800       0.72249160
    18  N          0.29836820       0.95446800       0.77750840
    19  N          0.79836820       0.54553200       0.27750840
    20  N          0.70163180       0.04553200       0.22249160
    21  C          0.37229170       0.46306800       0.31454170
    22  C          0.12770830       0.96306800       0.18545830
    23  C          0.62770830       0.53693200       0.68545830
    24  C          0.87229170       0.03693200       0.81454170
    25  H          0.43160000       0.43000000       0.24140000
    26  H          0.06840000       0.93000000       0.25860000
    27  H          0.56840000       0.57000000       0.75860000
    28  H          0.93160000       0.07000000       0.74140000
    29  C          0.20192180       0.55857800       0.52363170
    30  C          0.29807820       0.05857800       0.97636830
    31  C          0.79807820       0.44142200       0.47636830
    32  C          0.70192180       0.94142200       0.02363170
    33  H          0.14180000       0.59320000       0.59310000
    34  H          0.35820000       0.09320000       0.90690000
    35  H          0.85820000       0.40680000       0.40690000
    36  H          0.64180000       0.90680000       0.09310000
    37  C          0.32959170       0.43211800       0.46241170
    38  C          0.17040830       0.93211800       0.03758830
    39  C          0.67040830       0.56788200       0.53758830
    40  C          0.82959170       0.06788200       0.96241170
    41  H          0.35780000       0.37860000       0.48940000
    42  H          0.14220000       0.87860000       0.01060000
    43  H          0.64220000       0.62140000       0.51060000
    44  H          0.85780000       0.12140000      -0.01060000
    45  C          0.24946190       0.58364800       0.37367180
    46  C          0.25053810       0.08364800       0.12632820
    47  C          0.75053810       0.41635200       0.62632820
    48  C          0.74946190       0.91635200       0.87367180
    49  H          0.22110000       0.63650000       0.34190000
    50  H          0.27890000       0.13650000       0.15810000
    51  H          0.77890000       0.36350000       0.65810000
    52  H          0.72110000       0.86350000       0.84190000
    53  H          0.44230000       0.31931300       0.89830000
    54  H          0.05770000       0.81931300       0.60170000
    55  H          0.55770000       0.68068700       0.10170000
    56  H          0.94230000       0.18068700       0.39830000
    57  H          0.13940000       0.08291900       0.38040000
    58  H          0.36060000       0.58291900       0.11960000
    59  H          0.86060000       0.91708100       0.61960000
    60  H          0.63940000       0.41708100       0.88040000
    61  O          0.10221120       0.11991600       0.48315110
    62  O          0.39778880       0.61991600       0.01684890
    63  O          0.89778880       0.88008400       0.51684890
    64  O          0.60221120       0.38008400      -0.01684890
    65  O          0.34613130       0.30485600       0.84643130
    66  O          0.15386870       0.80485600       0.65356870
    67  O          0.65386870       0.69514400       0.15356870
    68  O          0.84613130       0.19514400       0.34643130
    69  C          0.52538170       0.20733900       0.71967170
    70  C          0.97461830       0.70733900       0.78032830
    71  C          0.47461830       0.79266100       0.28032830
    72  C          0.02538170       0.29266100       0.21967170
    73  H          0.62160000       0.22760000       0.77410000
    74  H          0.87840000       0.72760000       0.72590000
    75  H          0.37840000       0.77240000       0.22590000
    76  H          0.12160000       0.27240000       0.27410000
    77  C          0.24086160       0.14799800       0.55999150
    78  C          0.25913840       0.64799800       0.94000850
    79  C          0.75913840       0.85200200       0.44000850
    80  C          0.74086160       0.35200200       0.05999150
    81  C          0.22398160       0.21232800       0.66764160
    82  C          0.27601840       0.71232800       0.83235840
    83  C          0.77601840       0.78767200       0.33235840
    84  C          0.72398160       0.28767200       0.16764160
    85  C          0.36789170       0.24149800       0.74454160
    86  C          0.13210830       0.74149800       0.75545840
    87  C          0.63210830       0.75850200       0.25545840
    88  C          0.86789170       0.25850200       0.24454160
    89  C          0.53862170       0.14353900       0.61451170
    90  C          0.96137830       0.64353900       0.88548830
    91  C          0.46137830       0.85646100       0.38548830
    92  C          0.03862170       0.35646100       0.11451170
    93  H          0.64510000       0.12000000       0.59660000
    94  H          0.85490000       0.62000000       0.90340000
    95  H          0.35490000       0.88000000       0.40340000
    96  H          0.14510000       0.38000000       0.09660000
    97  C          0.05536170       0.24924900       0.70012000
    98  C          0.44463830       0.74924900       0.79988000
    99  C          0.94463830       0.75075100       0.29988000
   100  C          0.55536170       0.25075100       0.20012000
   101  H          0.03980000       0.29610000       0.63080000
   102  H          0.46020000       0.79610000       0.86920000
   103  H          0.96020000       0.70390000       0.36920000
   104  H          0.53980000       0.20390000       0.13080000
   105  H          0.04960000       0.26540000       0.81370000
   106  H          0.45040000       0.76540000       0.68630000
   107  H          0.95040000       0.73460000       0.18630000
   108  H          0.54960000       0.23460000       0.31370000
   109  H          0.96700000       0.21020000       0.67690000
   110  H          0.53300000       0.71020000       0.82310000
   111  H          0.03300000       0.78980000       0.32310000
   112  H          0.46700000       0.28980000       0.17690000
   113  C          0.39855170       0.11323900       0.53454160
   114  C          0.10144830       0.61323900       0.96545840
   115  C          0.60144830       0.88676100       0.46545840
   116  C          0.89855170       0.38676100       0.03454160
   117  H          0.40950000       0.06920000       0.46300000
   118  H          0.09050000       0.56920000       0.03700000
   119  H          0.59050000       0.93080000       0.53700000
   120  H          0.90950000       0.43080000       0.96300000
