data_NUSLOE
_symmetry_space_group_name_H-M    'P1'
_symmetry_Int_Tables_number       1
loop_
_symmetry_equiv_pos_site_id
_symmetry_equiv_pos_as_xyz
1 x,y,z
_cell_length_a                   12.47093
_cell_length_b                   6.7323812
_cell_length_c                   15.98973
_cell_angle_alpha                90.0
_cell_angle_beta                 113.53407
_cell_angle_gamma                90.0
loop_
_atom_site_label
_atom_site_type_symbol
_atom_site_fract_x
_atom_site_fract_y
_atom_site_fract_z
     1  S          0.46726400       0.07748700       0.85773300
     2  S          0.53273600       0.57748700       0.64226700
     3  S          0.53273600       0.92251300       0.14226700
     4  S          0.46726400       0.42251300       0.35773300
     5  S          0.41973400       0.71468400       0.94154300
     6  S          0.58026600       0.21468400       0.55845700
     7  S          0.58026600       0.28531600       0.05845700
     8  S          0.41973400       0.78531600       0.44154300
     9  C          0.47696140       0.95667000       0.95823110
    10  C          0.52303860       0.45667000       0.54176890
    11  C          0.52303860       0.04333000       0.04176890
    12  C          0.47696140       0.54333000       0.45823110
    13  C          0.38173160       0.71367000       0.82438130
    14  C          0.61826840       0.21367000       0.67561870
    15  C          0.61826840       0.28633000       0.17561870
    16  C          0.38173160       0.78633000       0.32438130
    17  C          0.40253160       0.87667000       0.78637120
    18  C          0.59746840       0.37667000       0.71362880
    19  C          0.59746840       0.12333000       0.21362880
    20  C          0.40253160       0.62333000       0.28637120
    21  H          0.38151900       0.89360000       0.72151600
    22  H          0.61848100       0.39360000       0.77848400
    23  H          0.61848100       0.10640000       0.27848400
    24  H          0.38151900       0.60640000       0.22151600
    25  H          0.34681900       0.58560000       0.79511500
    26  H          0.65318100       0.08560000       0.70488500
    27  H          0.65318100       0.41440000       0.20488500
    28  H          0.34681900       0.91440000       0.29511500
    29  O          0.04588100       0.23354170       0.54499700
    30  O          0.95411900       0.73354170       0.95500300
    31  O          0.95411900       0.76645830       0.45500300
    32  O          0.04588100       0.26645830       0.04499700
    33  O          0.06909100       0.67102830       0.70819800
    34  O          0.93090900       0.17102830       0.79180200
    35  O          0.93090900       0.32897170       0.29180200
    36  O          0.06909100       0.82897170       0.20819800
    37  N          0.13181120       0.25703000       0.69941900
    38  N          0.86818880       0.75703000       0.80058100
    39  N          0.86818880       0.74297000       0.30058100
    40  N          0.13181120       0.24297000       0.19941900
    41  N          0.06384120       0.95228000       0.62858100
    42  N          0.93615880       0.45228000       0.87141900
    43  N          0.93615880       0.04772000       0.37141900
    44  N          0.06384120       0.54772000       0.12858100
    45  N          0.15287110       0.88878000       0.87121900
    46  N          0.84712890       0.38878000       0.62878100
    47  N          0.84712890       0.11122000       0.12878100
    48  N          0.15287110       0.61122000       0.37121900
    49  N          0.22920130       0.87607000       0.10441100
    50  N          0.77079870       0.37607000       0.39558900
    51  N          0.77079870       0.12393000       0.89558900
    52  N          0.22920130       0.62393000       0.60441100
    53  N          0.31704140       0.41803000       0.08346110
    54  N          0.68295860       0.91803000       0.41653890
    55  N          0.68295860       0.58197000       0.91653890
    56  N          0.31704140       0.08197000       0.58346110
    57  N          0.20735120       0.29302000       0.85636900
    58  N          0.79264880       0.79302000       0.64363100
    59  N          0.79264880       0.70698000       0.14363100
    60  N          0.20735120       0.20698000       0.35636900
    61  C          0.07809130       0.15323000       0.61939110
    62  C          0.92190870       0.65323000       0.88060890
    63  C          0.92190870       0.84677000       0.38060890
    64  C          0.07809130       0.34677000       0.11939110
    65  C          0.08867130       0.84737000       0.70801110
    66  C          0.91132870       0.34737000       0.79198890
    67  C          0.91132870       0.15263000       0.29198890
    68  C          0.08867130       0.65263000       0.20801110
    69  C          0.13752130       0.97167000       0.79156110
    70  C          0.86247870       0.47167000       0.70843890
    71  C          0.86247870       0.02833000       0.20843890
    72  C          0.13752130       0.52833000       0.29156110
    73  C          0.19510130       0.00893000       0.94376110
    74  C          0.80489870       0.50893000       0.55623890
    75  C          0.80489870      -0.00893000       0.05623890
    76  C          0.19510130       0.49107000       0.44376110
    77  C          0.21210140       0.92917000       0.03182110
    78  C          0.78789860       0.42917000       0.46817890
    79  C          0.78789860       0.07083000       0.96817890
    80  C          0.21210140       0.57083000       0.53182110
    81  C          0.22476140       0.20753000       0.93603110
    82  C          0.77523860       0.70753000       0.56396890
    83  C          0.77523860       0.79247000       0.06396890
    84  C          0.22476140       0.29247000       0.43603110
    85  C          0.27568140       0.32823000       0.01760110
    86  C          0.72431860       0.82823000       0.48239890
    87  C          0.72431860       0.67177000       0.98239890
    88  C          0.27568140       0.17177000       0.51760110
    89  C          0.16018130       0.17443000       0.78353110
    90  C          0.83981870       0.67443000       0.71646890
    91  C          0.83981870       0.82557000       0.21646890
    92  C          0.16018130       0.32557000       0.28353110
    93  H          0.13320000       0.37840000       0.69271600
    94  H          0.86680000       0.87840000       0.80728400
    95  H          0.86680000       0.62160000       0.30728400
    96  H          0.13320000       0.12160000       0.19271600
    97  H          0.03591900       0.89660000       0.58111700
    98  H          0.96408100       0.39660000       0.91888300
    99  H          0.96408100       0.10340000       0.41888300
   100  H          0.03591900       0.60340000       0.08111700
