data_NUSVAZ
_symmetry_space_group_name_H-M    'P1'
_symmetry_Int_Tables_number       1
loop_
_symmetry_equiv_pos_site_id
_symmetry_equiv_pos_as_xyz
1 x,y,z
_cell_length_a                   29.819313
_cell_length_b                   4.56142
_cell_length_c                   11.73005
_cell_angle_alpha                90.0
_cell_angle_beta                 99.5063
_cell_angle_gamma                90.0
loop_
_atom_site_label
_atom_site_type_symbol
_atom_site_fract_x
_atom_site_fract_y
_atom_site_fract_z
     1  C          0.28967600       0.41584000       0.10389130
     2  C          0.71032400       0.91584000       0.39610870
     3  C          0.71032400       0.58416000       0.89610870
     4  C          0.28967600       0.08416000       0.60389130
     5  C          0.30403600       0.22004000       0.02378160
     6  C          0.69596400       0.72004000       0.47621840
     7  C          0.69596400       0.77996000       0.97621840
     8  C          0.30403600       0.27996000       0.52378160
     9  H          0.28270000       0.12900000       0.96810000
    10  H          0.71730000       0.62900000       0.53190000
    11  H          0.71730000       0.87100000       0.03190000
    12  H          0.28270000       0.37100000       0.46810000
    13  C          0.34881700       0.16575000       0.02835180
    14  C          0.65118300       0.66575000       0.47164820
    15  C          0.65118300       0.83425000       0.97164820
    16  C          0.34881700       0.33425000       0.52835180
    17  H          0.35860000       0.03680000       0.97620000
    18  H          0.64140000       0.53680000       0.52380000
    19  H          0.64140000       0.96320000       0.02380000
    20  H          0.35860000       0.46320000       0.47620000
    21  C          0.38020700       0.30525000       0.11242000
    22  C          0.61979300       0.80525000       0.38758000
    23  C          0.61979300       0.69475000       0.88758000
    24  C          0.38020700       0.19475000       0.61242000
    25  H          0.41090000       0.26420000       0.11470000
    26  H          0.58910000       0.76420000       0.38530000
    27  H          0.58910000       0.73580000       0.88530000
    28  H          0.41090000       0.23580000       0.61470000
    29  C          0.32384600       0.55034000       0.18585150
    30  C          0.67615400       0.05034000       0.31414850
    31  C          0.67615400       0.44966000       0.81414850
    32  C          0.32384600       0.94966000       0.68585150
    33  C          0.31122700       0.75274000       0.26577160
    34  C          0.68877300       0.25274000       0.23422840
    35  C          0.68877300       0.24726000       0.73422840
    36  C          0.31122700       0.74726000       0.76577160
    37  H          0.33350000       0.84370000       0.31890000
    38  H          0.66650000       0.34370000       0.18110000
    39  H          0.66650000       0.15630000       0.68110000
    40  H          0.33350000       0.65630000       0.81890000
    41  C          0.26669700       0.81504000       0.26527160
    42  C          0.73330300       0.31504000       0.23472840
    43  C          0.73330300       0.18496000       0.73472840
    44  C          0.26669700       0.68496000       0.76527160
    45  H          0.25880000       0.94860000       0.31840000
    46  H          0.74120000       0.44860000       0.18160000
    47  H          0.74120000       0.05140000       0.68160000
    48  H          0.25880000       0.55140000       0.81840000
    49  C          0.23240600       0.68104000       0.18594160
    50  C          0.76759400       0.18104000       0.31405840
    51  C          0.76759400       0.31896000       0.81405840
    52  C          0.23240600       0.81896000       0.68594160
    53  H          0.20210000       0.72460000       0.18770000
    54  H          0.79790000       0.22460000       0.31230000
    55  H          0.79790000       0.27540000       0.81230000
    56  H          0.20210000       0.77540000       0.68770000
    57  C          0.24339500       0.48723000       0.10622140
    58  C          0.75660500      -0.01277000       0.39377860
    59  C          0.75660500       0.51277000       0.89377860
    60  C          0.24339500       0.01277000       0.60622140
    61  C          0.17972500       0.50423000       0.94614140
    62  C          0.82027500       0.00423000       0.55385860
    63  C          0.82027500       0.49577000       0.05385860
    64  C          0.17972500      -0.00423000       0.44614140
    65  C          0.11657500       0.44954000       0.78472150
    66  C          0.88342500       0.94954000       0.71527850
    67  C          0.88342500       0.55046000       0.21527850
    68  C          0.11657500       0.05046000       0.28472150
    69  C          0.11192700       0.34435000       0.67326170
    70  C          0.88807300       0.84435000       0.82673830
    71  C          0.88807300       0.65565000       0.32673830
    72  C          0.11192700       0.15565000       0.17326170
    73  H          0.13260000       0.20810000       0.65390000
    74  H          0.86740000       0.70810000       0.84610000
    75  H          0.86740000       0.79190000       0.34610000
    76  H          0.13260000       0.29190000       0.15390000
    77  C          0.07681800       0.44006000       0.59054190
    78  C          0.92318200       0.94006000       0.90945810
    79  C          0.92318200       0.55994000       0.40945810
    80  C          0.07681800       0.05994000       0.09054190
    81  H          0.07360000       0.36520000       0.51590000
    82  H          0.92640000       0.86520000       0.98410000
    83  H          0.92640000       0.63480000       0.48410000
    84  H          0.07360000       0.13480000       0.01590000
    85  C          0.04678800       0.64325000       0.61712000
    86  C          0.95321200       0.14325000       0.88288000
    87  C          0.95321200       0.35675000       0.38288000
    88  C          0.04678800       0.85675000       0.11712000
    89  H          0.02350000       0.71030000       0.56050000
    90  H          0.97650000       0.21030000       0.93950000
    91  H          0.97650000       0.28970000       0.43950000
    92  H          0.02350000       0.78970000       0.06050000
    93  C          0.05106700       0.74795000       0.72753000
    94  C          0.94893300       0.24795000       0.77247000
    95  C          0.94893300       0.25205000       0.27247000
    96  C          0.05106700       0.75205000       0.22753000
    97  H          0.03050000       0.88660000       0.74570000
    98  H          0.96950000       0.38660000       0.75430000
    99  H          0.96950000       0.11340000       0.25430000
   100  H          0.03050000       0.61340000       0.24570000
   101  C          0.08567600       0.65024000       0.81281190
   102  C          0.91432400       0.15024000       0.68718810
   103  C          0.91432400       0.34976000       0.18718810
   104  C          0.08567600       0.84976000       0.31281190
   105  H          0.08800000       0.71940000       0.88810000
   106  H          0.91200000       0.21940000       0.61190000
   107  H          0.91200000       0.28060000       0.11190000
   108  H          0.08800000       0.78060000       0.38810000
   109  H          0.20796000       0.16950000       0.01801600
   110  H          0.79204000       0.66950000       0.48198400
   111  H          0.79204000       0.83050000       0.98198400
   112  H          0.20796000       0.33050000       0.51801600
   113  H          0.15607000       0.16850000       0.87021700
   114  H          0.84393000       0.66850000       0.62978300
   115  H          0.84393000       0.83150000       0.12978300
   116  H          0.15607000       0.33150000       0.37021700
   117  N          0.36895500       0.49134000       0.18844140
   118  N          0.63104500      -0.00866000       0.31155860
   119  N          0.63104500       0.50866000       0.81155860
   120  N          0.36895500       0.00866000       0.68844140
   121  N          0.20915500       0.35033000       0.02445130
   122  N          0.79084500       0.85033000       0.47554870
   123  N          0.79084500       0.64967000       0.97554870
   124  N          0.20915500       0.14967000       0.52445130
   125  N          0.15170500       0.33714000       0.86993140
   126  N          0.84829500       0.83714000       0.63006860
   127  N          0.84829500       0.66286000       0.13006860
   128  N          0.15170500       0.16286000       0.36993140
   129  O          0.17918400       0.77283000       0.94406120
   130  O          0.82081600       0.27283000       0.55593880
   131  O          0.82081600       0.22717000       0.05593880
   132  O          0.17918400       0.72717000       0.44406120
   133  C          0.45060700       0.67645000       0.89892000
   134  C          0.54939300       0.17645000       0.60108000
   135  C          0.54939300       0.32355000       0.10108000
   136  C          0.45060700       0.82355000       0.39892000
   137  C          0.49259700       0.51436000       0.94525190
   138  C          0.50740300       0.01436000       0.55474810
   139  C          0.50740300       0.48564000       0.05474810
   140  C          0.49259700      -0.01436000       0.44525190
   141  H          0.50910000       0.42890000       0.89330000
   142  H          0.49090000       0.92890000       0.60670000
   143  H          0.49090000       0.57110000       0.10670000
   144  H          0.50910000       0.07110000       0.39330000
   145  O          0.42496800       0.76447000       0.95756190
   146  O          0.57503200       0.26447000       0.54243810
   147  O          0.57503200       0.23553000       0.04243810
   148  O          0.42496800       0.73553000       0.45756190
   149  O          0.44383500       0.70615000       0.78724150
   150  O          0.55616500       0.20615000       0.71275850
   151  O          0.55616500       0.29385000       0.21275850
   152  O          0.44383500       0.79385000       0.28724150
   153  H          0.42010000       0.79630000       0.76660000
   154  H          0.57990000       0.29630000       0.73340000
   155  H          0.57990000       0.20370000       0.23340000
   156  H          0.42010000       0.70370000       0.26660000
