data_NUTBAH02
_symmetry_space_group_name_H-M    'P1'
_symmetry_Int_Tables_number       1
loop_
_symmetry_equiv_pos_site_id
_symmetry_equiv_pos_as_xyz
1 x,y,z
_cell_length_a                   6.8865
_cell_length_b                   20.64714
_cell_length_c                   8.2326
_cell_angle_alpha                90.0
_cell_angle_beta                 97.43811
_cell_angle_gamma                90.0
loop_
_atom_site_label
_atom_site_type_symbol
_atom_site_fract_x
_atom_site_fract_y
_atom_site_fract_z
     1  C          0.51573000       0.32714110       0.97547000
     2  C          0.01573000       0.67285890       0.47547000
     3  C          0.56563000       0.26766110       0.89877000
     4  C          0.06563000       0.73233890       0.39877000
     5  H          0.55610000       0.26550000       0.78520000
     6  H          0.05610000       0.73450000       0.28520000
     7  C          0.62603000       0.21495110      -0.01053000
     8  C          0.12603000       0.78504890       0.48947000
     9  H          0.65800000       0.17730000       0.93670000
    10  H          0.15800000       0.82270000       0.43670000
    11  C          0.64204000       0.21576110       0.16613000
    12  C          0.14204000       0.78423890       0.66613000
    13  C          0.59254000       0.27527110       0.24343000
    14  C          0.09254000       0.72472890       0.74343000
    15  H          0.60060000       0.27730000       0.35690000
    16  H          0.10060000       0.72270000       0.85690000
    17  C          0.53453000       0.32801110       0.15303000
    18  C          0.03453000       0.67198890       0.65303000
    19  H          0.50580000       0.36590000       0.20600000
    20  H          0.00580000       0.63410000       0.70600000
    21  C          0.70644000       0.16154110       0.25923000
    22  C          0.20644000       0.83845890       0.75923000
    23  C          0.76314000       0.10305110       0.18453000
    24  C          0.26314000       0.89694890       0.68453000
    25  C          0.73184000       0.16144110       0.43593000
    26  C          0.23184000       0.83855890       0.93593000
    27  N          0.81083000       0.05594100       0.12603000
    28  N          0.31083000       0.94405900       0.62603000
    29  N          0.75614000       0.16060120       0.57753000
    30  N          0.25614000       0.83939880       0.07753000
    31  C          0.45724000       0.38156110       0.88227000
    32  C          0.95724000       0.61843890       0.38227000
    33  C          0.43964000       0.38147110       0.70527000
    34  C          0.93964000       0.61852890       0.20527000
    35  C          0.41924000       0.44257120       0.95547000
    36  C          0.91924000       0.55742880       0.45547000
    37  N          0.42544000       0.38168120       0.56367000
    38  N          0.92544000       0.61831880       0.06367000
    39  N          0.39144000       0.49195100       0.01233000
    40  N          0.89144000       0.50804900       0.51233000
    41  C          0.22544000       0.14536110       0.01243000
    42  C          0.72544000       0.85463890       0.51243000
    43  H          0.21590000       0.15100000       0.89960000
    44  H          0.71590000       0.84900000       0.39960000
    45  C          0.28353000       0.08551110       0.07703000
    46  C          0.78353000       0.91448890       0.57703000
    47  C          0.32784000       0.03049120       0.96777000
    48  C          0.82784000       0.96950880       0.46777000
    49  H          0.31280000       0.04490000       0.85600000
    50  H          0.81280000       0.95510000       0.35600000
    51  H          0.23900000      -0.00460000       0.97880000
    52  H          0.73900000       0.00460000       0.47880000
    53  H          0.45990000       0.01610000      -0.00100000
    54  H          0.95990000       0.98390000       0.49900000
    55  C          0.29673000       0.07605110       0.24913000
    56  C          0.79673000       0.92394890       0.74913000
    57  N          0.34793000       0.01660100       0.31423000
    58  N          0.84793000       0.98339900       0.81423000
    59  H          0.35570000       0.01060000       0.41820000
    60  H          0.85570000       0.98940000       0.91820000
    61  H          0.37230000       0.98520000       0.25120000
    62  H          0.87230000       0.01480000       0.75120000
    63  C          0.25593000       0.12826110       0.35173000
    64  C          0.75593000       0.87173890       0.85173000
    65  C          0.26834000       0.11859130       0.53543000
    66  C          0.76834000       0.88140870       0.03543000
    67  H          0.24690000       0.15920000       0.58690000
    68  H          0.74690000       0.84080000       0.08690000
    69  H          0.39560000       0.10230000       0.57710000
    70  H          0.89560000       0.89770000       0.07710000
    71  H          0.17020000       0.08810000       0.55850000
    72  H          0.67020000       0.91190000       0.05850000
    73  C          0.19944000       0.18722110       0.28073000
    74  C          0.69944000       0.81277890       0.78073000
    75  H          0.17330000       0.22120000       0.34870000
    76  H          0.67330000       0.77880000       0.84870000
    77  C          0.17963000       0.19830110       0.10953000
    78  C          0.67963000       0.80169890       0.60953000
    79  C          0.11243000       0.26037110       0.03593000
    80  C          0.61243000       0.73962890       0.53593000
    81  C          0.08694000       0.31523110       0.13393000
    82  C          0.58694000       0.68476890       0.63393000
    83  H          0.11630000       0.31150000       0.24700000
    84  H          0.61630000       0.68850000       0.74700000
    85  C          0.02074000       0.37387110       0.06943000
    86  C          0.52074000       0.62612890       0.56943000
    87  C         -0.00945000       0.43075120       0.18013000
    88  C          0.49055000       0.56924880       0.68013000
    89  H          0.02700000       0.41840000       0.29240000
    90  H          0.52700000       0.58160000       0.79240000
    91  H          0.85530000       0.44340000       0.16400000
    92  H          0.35530000       0.55660000       0.66400000
    93  H          0.07030000       0.46650000       0.15410000
    94  H          0.57030000       0.53350000       0.65410000
    95  C         -0.02094000       0.38099110       0.89637000
    96  C          0.47906000       0.61900890       0.39637000
    97  N          0.90887000       0.43884100       0.83057000
    98  N          0.40887000       0.56115900       0.33057000
    99  H          0.87860000       0.44260000       0.72640000
   100  H          0.37860000       0.55740000       0.22640000
   101  H          0.89530000       0.47130000       0.89370000
   102  H          0.39530000       0.52870000       0.39370000
   103  C          0.00213000       0.32706110       0.79307000
   104  C          0.50213000       0.67293890       0.29307000
   105  C          0.95106000       0.33338120       0.60887000
   106  C          0.45106000       0.66661880       0.10887000
   107  H          0.81810000       0.34780000       0.58380000
   108  H          0.31810000       0.65220000       0.08380000
   109  H          0.96590000       0.29210000       0.55840000
   110  H          0.46590000       0.70790000       0.05840000
   111  H          0.03710000       0.36430000       0.56810000
   112  H          0.53710000       0.63570000       0.06810000
   113  C          0.06703000       0.26897110       0.86407000
   114  C          0.56703000       0.73102890       0.36407000
   115  H          0.08160000       0.23380000       0.79600000
   116  H          0.58160000       0.76620000       0.29600000
