data_NUTBAH
_symmetry_space_group_name_H-M    'P1'
_symmetry_Int_Tables_number       1
loop_
_symmetry_equiv_pos_site_id
_symmetry_equiv_pos_as_xyz
1 x,y,z
_cell_length_a                   6.748112
_cell_length_b                   21.8913
_cell_length_c                   8.127911
_cell_angle_alpha                90.0
_cell_angle_beta                 100.22911
_cell_angle_gamma                90.0
loop_
_atom_site_label
_atom_site_type_symbol
_atom_site_fract_x
_atom_site_fract_y
_atom_site_fract_z
     1  N          0.05172000       0.20757600       0.24412000
     2  N          0.44828000       0.70757600       0.25588000
     3  N          0.94828000       0.79242400       0.75588000
     4  N          0.55172000       0.29242400       0.74412000
     5  C          0.04302000       0.04012500       0.21109130
     6  C          0.45698000       0.54012500       0.28890870
     7  C          0.95698000       0.95987500       0.78890870
     8  C          0.54302000       0.45987500       0.71109130
     9  C          0.05622000       0.09777600       0.28297140
    10  C          0.44378000       0.59777600       0.21702860
    11  C          0.94378000       0.90222400       0.71702860
    12  C          0.55622000       0.40222400       0.78297140
    13  C          0.00832000       0.14173500       0.00265150
    14  C          0.49168000       0.64173500       0.49734850
    15  C         -0.00832000       0.85826500      -0.00265150
    16  C          0.50832000       0.35826500       0.50265150
    17  C         -0.00692000       0.08332500       0.93729860
    18  C          0.50692000       0.58332500       0.56270140
    19  C          0.00692000       0.91667500       0.06270140
    20  C          0.49308000       0.41667500       0.43729860
    21  C          0.03782000       0.14956500       0.17783160
    22  C          0.46218000       0.64956500       0.32216840
    23  C          0.96218000       0.85043500       0.82216840
    24  C          0.53782000       0.35043500       0.67783160
    25  C         -0.00743000       0.19640700       0.88888000
    26  C          0.50743000       0.69640700       0.61112000
    27  C          0.00743000       0.80359300       0.11112000
    28  C          0.49257000       0.30359300       0.38888000
    29  C          0.09003000       0.10554900       0.46983170
    30  C          0.40997000       0.60554900       0.03016830
    31  C          0.90997000       0.89445100       0.53016830
    32  C          0.59003000       0.39445100       0.96983170
    33  C          0.00832000       0.03066400       0.03702110
    34  C          0.49168000       0.53066400       0.46297890
    35  C         -0.00832000       0.96933600       0.96297890
    36  C          0.50832000       0.46933600       0.53702110
    37  H          0.21530000       0.12929000       0.50620000
    38  H          0.28470000       0.62929000      -0.00620000
    39  H          0.78470000       0.87071000       0.49380000
    40  H          0.71530000       0.37071000       0.00620000
    41  H          0.11230000       0.06681200       0.52720000
    42  H          0.38770000       0.56681200       0.97280000
    43  H          0.88770000       0.93318800       0.47280000
    44  H          0.61230000       0.43318800       0.02720000
    45  H         -0.02150000       0.12531400       0.50830000
    46  H          0.52150000       0.62531400      -0.00830000
    47  H          0.02150000       0.87468600       0.49170000
    48  H          0.47850000       0.37468600       0.00830000
    49  H          0.04530000       0.21121100       0.35320000
    50  H          0.45470000       0.71121100       0.14680000
    51  H          0.95470000       0.78878900       0.64680000
    52  H          0.54530000       0.28878900       0.85320000
    53  H          0.03130000       0.23741000       0.17120000
    54  H          0.46870000       0.73741000       0.32880000
    55  H          0.96870000       0.76259000       0.82880000
    56  H          0.53130000       0.26259000       0.67120000
    57  H          0.88370000       0.22369000       0.91080000
    58  H          0.61630000       0.72369000       0.58920000
    59  H          0.11630000       0.77631000       0.08920000
    60  H          0.38370000       0.27631000       0.41080000
    61  H          0.95870000       0.18301100       0.76980000
    62  H          0.54130000       0.68301100       0.73020000
    63  H          0.04130000       0.81698900       0.23020000
    64  H          0.45870000       0.31698900       0.26980000
    65  H          0.12240000       0.22021300       0.91480000
    66  H          0.37760000       0.72021300       0.58520000
    67  H          0.87760000       0.77978700       0.08520000
    68  H          0.62240000       0.27978700       0.41480000
    69  H          0.96480000       0.07887000       0.81380000
    70  H          0.53520000       0.57887000       0.68620000
    71  H          0.03520000       0.92113000       0.18620000
    72  H          0.46480000       0.42113000       0.31380000
    73  H          0.05820000       0.00738000       0.29220000
    74  H          0.44180000       0.50738000       0.20780000
    75  H          0.94180000       0.99262000       0.70780000
    76  H          0.55820000       0.49262000       0.79220000
    77  N          0.52372000       0.21533600       0.04621180
    78  N         -0.02372000       0.71533600       0.45378820
    79  N          0.47628000       0.78466400       0.95378820
    80  N          0.02372000       0.28466400       0.54621180
    81  N          0.59062000       0.10975900       0.50424180
    82  N          0.90938000       0.60975900      -0.00424180
    83  N          0.40938000       0.89024100       0.49575820
    84  N          0.09062000       0.39024100       0.00424180
    85  C          0.52452000      -0.00278500       0.17520130
    86  C          0.97548000       0.49721500       0.32479870
    87  C          0.47548000       0.00278500       0.82479870
    88  C          0.02452000       0.50278500       0.67520130
    89  C          0.53622000       0.10936500       0.18289140
    90  C          0.96378000       0.60936500       0.31710860
    91  C          0.46378000       0.89063500       0.81710860
    92  C          0.03622000       0.39063500       0.68289140
    93  C          0.52962000       0.16776500       0.10542150
    94  C          0.97038000       0.66776500       0.39457850
    95  C          0.47038000       0.83223500       0.89457850
    96  C          0.02962000       0.33223500       0.60542150
    97  C          0.56572000       0.10960600       0.36134170
    98  C          0.93428000       0.60960600       0.13865830
    99  C          0.43428000       0.89039400       0.63865830
   100  C          0.06572000       0.39039400       0.86134170
   101  C          0.49242000       0.05565500       0.91262860
   102  C          0.00758000       0.55565500       0.58737140
   103  C          0.50758000       0.94434500       0.08737140
   104  C         -0.00758000       0.44434500       0.41262860
   105  C          0.51792000       0.05536500       0.09172130
   106  C         -0.01792000       0.55536500       0.40827870
   107  C          0.48208000       0.94463500       0.90827870
   108  C          0.01792000       0.44463500       0.59172130
   109  H          0.53620000      -0.00377000       0.29691900
   110  H          0.96380000       0.49623000       0.20308100
   111  H          0.46380000       0.00377000       0.70308100
   112  H          0.03620000       0.50377000       0.79691900
   113  H          0.49420000       0.09607000       0.85280000
   114  H          0.00580000       0.59607000       0.64720000
   115  H          0.50580000       0.90393000       0.14720000
   116  H         -0.00580000       0.40393000       0.35280000
