data_NUXPOM
_symmetry_space_group_name_H-M    'P1'
_symmetry_Int_Tables_number       1
loop_
_symmetry_equiv_pos_site_id
_symmetry_equiv_pos_as_xyz
1 x,y,z
_cell_length_a                   6.07554
_cell_length_b                   8.33925
_cell_length_c                   10.52517
_cell_angle_alpha                78.3125
_cell_angle_beta                 76.9436
_cell_angle_gamma                85.7435
loop_
_atom_site_label
_atom_site_type_symbol
_atom_site_fract_x
_atom_site_fract_y
_atom_site_fract_z
     1  C          0.13403000       0.61172000       0.06725160
     2  C          0.86597000       0.38828000       0.93274840
     3  C          0.17963000       0.72772000       0.94227840
     4  C          0.82037000       0.27228000       0.05772160
     5  C          0.02103000       0.83902000       0.90844840
     6  C          0.97897000       0.16098000       0.09155160
     7  H          0.05190000       0.91460000       0.82640000
     8  H          0.94810000       0.08540000       0.17360000
     9  C          0.80663000       0.84242000      -0.00345150
    10  C          0.19337000       0.15758000       0.00345150
    11  H          0.69290000       0.92020000       0.97330000
    12  H          0.30710000       0.07980000       0.02670000
    13  C          0.76483000       0.73599190       0.11251160
    14  C          0.23517000       0.26400810       0.88748840
    15  C          0.55403000       0.72612000       0.21688160
    16  C          0.44597000       0.27388000       0.78311840
    17  O          0.26651180       0.50527140       0.10520110
    18  O          0.73348820       0.49472860       0.89479890
    19  O          0.38612190       0.71812150       0.86329890
    20  O          0.61387810       0.28187850       0.13670110
    21  H          0.45890000       0.64210000       0.89660000
    22  H          0.54110000       0.35790000       0.10340000
    23  O          0.92470180       0.62147130       0.14790100
    24  O          0.07529820       0.37852870       0.85209900
    25  O          0.40036190       0.83706140       0.18014110
    26  O          0.59963810       0.16293860       0.81985890
    27  H          0.28740000       0.83400000       0.24150000
    28  H          0.71260000       0.16600000       0.75850000
    29  O          0.52882000       0.62991150       0.32102110
    30  O          0.47118000       0.37008850       0.67897890
    31  S          0.05007700       0.27858500       0.53597400
    32  S          0.94992300       0.72141500       0.46402600
    33  O          0.95225810       0.13395140       0.64201110
    34  O          0.04774190       0.86604860       0.35798890
    35  C          0.30673000       0.19873000       0.45032000
    36  C          0.69327000       0.80127000       0.54968000
    37  H          0.40880000       0.16440000       0.51140000
    38  H          0.59120000       0.83560000       0.48860000
    39  H          0.37780000       0.28330000       0.37640000
    40  H          0.62220000       0.71670000       0.62360000
    41  H          0.27540000       0.10420000       0.41560000
    42  H          0.72460000       0.89580000       0.58440000
    43  C          0.89457000       0.29832000       0.40928180
    44  C          0.10543000       0.70168000       0.59071820
    45  H          0.88000000       0.19010000       0.38970000
    46  H          0.12000000       0.80990000       0.61030000
    47  H          0.97400000       0.37000000       0.32890000
    48  H          0.02600000       0.63000000       0.67110000
    49  H          0.74390000       0.34570000       0.43940000
    50  H          0.25610000       0.65430000       0.56060000
