data_NUYBUF
_symmetry_space_group_name_H-M    'P1'
_symmetry_Int_Tables_number       1
loop_
_symmetry_equiv_pos_site_id
_symmetry_equiv_pos_as_xyz
1 x,y,z
_cell_length_a                   8.82425
_cell_length_b                   11.649513
_cell_length_c                   12.850612
_cell_angle_alpha                90.0
_cell_angle_beta                 104.5746
_cell_angle_gamma                90.0
loop_
_atom_site_label
_atom_site_type_symbol
_atom_site_fract_x
_atom_site_fract_y
_atom_site_fract_z
     1  H          0.00920000       0.76181700       0.17861600
     2  H          0.49080000       0.26181700       0.32138400
     3  H         -0.00920000       0.23818300       0.82138400
     4  H          0.50920000       0.73818300       0.67861600
     5  H          0.09020000       0.96781700       0.76591800
     6  H          0.40980000       0.46781700       0.73408200
     7  H          0.90980000       0.03218300       0.23408200
     8  H          0.59020000       0.53218300       0.26591800
     9  H          0.39330000       0.94120000       0.06220000
    10  H          0.10670000       0.44120000       0.43780000
    11  H          0.60670000       0.05880000       0.93780000
    12  H          0.89330000       0.55880000       0.56220000
    13  H          0.54970000       0.72420000       0.91420000
    14  H          0.95030000       0.22420000       0.58580000
    15  H          0.45030000       0.27580000       0.08580000
    16  H          0.04970000       0.77580000       0.41420000
    17  H          0.20920000       0.84751900       0.12781800
    18  H          0.29080000       0.34751900       0.37218200
    19  H          0.79080000       0.15248100       0.87218200
    20  H          0.70920000       0.65248100       0.62781800
    21  H          0.33330000       0.00320000       0.87751900
    22  H          0.16670000       0.50320000       0.62248100
    23  H          0.66670000      -0.00320000       0.12248100
    24  H          0.83330000       0.49680000       0.37751900
    25  H          0.56370000       0.65720000       0.09420000
    26  H          0.93630000       0.15720000       0.40580000
    27  H          0.43630000       0.34280000       0.90580000
    28  H          0.06370000       0.84280000       0.59420000
    29  H          0.80270000       0.68320000       0.22620000
    30  H          0.69730000       0.18320000       0.27380000
    31  H          0.19730000       0.31680000       0.77380000
    32  H          0.30270000       0.81680000       0.72620000
    33  C          0.00304180       0.88419140       0.88061120
    34  C          0.49695820       0.38419140       0.61938880
    35  C         -0.00304180       0.11580860       0.11938880
    36  C          0.50304180       0.61580860       0.38061120
    37  N          0.85956830       0.86413130       0.80923110
    38  N          0.64043170       0.36413130       0.69076890
    39  N          0.14043170       0.13586870       0.19076890
    40  N          0.35956830       0.63586870       0.30923110
    41  N          0.74819830       0.81271140       0.83817120
    42  N          0.75180170       0.31271140       0.66182880
    43  N          0.25180170       0.18728860       0.16182880
    44  N          0.24819830       0.68728860       0.33817120
    45  C          0.91099820       0.79262140       0.02184120
    46  C          0.58900180       0.29262140       0.47815880
    47  C          0.08900180       0.20737860       0.97815880
    48  C          0.41099820       0.70737860       0.52184120
    49  C          0.03539170       0.84824140       0.98833120
    50  C          0.46460830       0.34824140       0.51166880
    51  C          0.96460830       0.15175860       0.01166880
    52  C          0.53539170       0.65175860       0.48833120
    53  C          0.76958000       0.77794160       0.94355140
    54  C          0.73042000       0.27794160       0.55644860
    55  C          0.23042000       0.22205840       0.05644860
    56  C          0.26958000       0.72205840       0.44355140
    57  C          0.11542000       0.94241160       0.84064160
    58  C          0.38458000       0.44241160       0.65935840
    59  C          0.88458000       0.05758840       0.15935840
    60  C          0.61542000       0.55758840       0.34064160
    61  C          0.91988000       0.75390170       0.12713140
    62  C          0.58012000       0.25390170       0.37286860
    63  C          0.08012000       0.24609830       0.87286860
    64  C          0.41988000       0.74609830       0.62713140
    65  C          0.18512000       0.87130170       0.05528150
    66  C          0.31488000       0.37130170       0.44471850
    67  C          0.81488000       0.12869830       0.94471850
    68  C          0.68512000       0.62869830       0.55528150
    69  C          0.25902000       0.96272000       0.90712000
    70  C          0.24098000       0.46272000       0.59288000
    71  C          0.74098000       0.03728000       0.09288000
    72  C          0.75902000       0.53728000       0.40712000
    73  C          0.79147000       0.70592000       0.15108190
    74  C          0.70853000       0.20592000       0.34891810
    75  C          0.20853000       0.29408000       0.84891810
    76  C          0.29147000       0.79408000       0.65108190
    77  C          0.63958000       0.72752000       0.97042000
    78  C          0.86042000       0.22752000       0.52958000
    79  C          0.36042000       0.27248000       0.02958000
    80  C          0.13958000       0.77248000       0.47042000
    81  C          0.29302000       0.92752000       0.01459190
    82  C          0.20698000       0.42752000       0.48540810
    83  C          0.70698000       0.07248000       0.98540810
    84  C          0.79302000       0.57248000       0.51459190
    85  C          0.65067000       0.69382000       0.07372000
    86  C          0.84933000       0.19382000       0.42628000
    87  C          0.34933000       0.30618000       0.92628000
    88  C          0.15067000       0.80618000       0.57372000
    89  H          0.69770000       0.41420000       0.83120000
    90  H          0.80230000       0.91420000       0.66880000
    91  H          0.30230000       0.58580000       0.16880000
    92  H          0.19770000       0.08580000       0.33120000
    93  Cl         0.21531600       0.61618400       0.86775400
    94  Cl         0.28468400       0.11618400       0.63224600
    95  Cl         0.78468400       0.38381600       0.13224600
    96  Cl         0.71531600       0.88381600       0.36775400
    97  O          0.70841850       0.41914140       0.89609110
    98  O          0.79158150       0.91914140       0.60390890
    99  O          0.29158150       0.58085860       0.10390890
   100  O          0.20841850       0.08085860       0.39609110
   101  O          0.89198840       0.53172130       0.79038100
   102  O          0.60801160       0.03172130       0.70961900
   103  O          0.10801160       0.46827870       0.20961900
   104  O          0.39198840       0.96827870       0.29038100
   105  C          0.94616810       0.51577140       0.88558120
   106  C          0.55383190       0.01577140       0.61441880
   107  C          0.05383190       0.48422860       0.11441880
   108  C          0.44616810       0.98422860       0.38558120
   109  C          0.84616820       0.45719150       0.94949130
   110  C          0.65383180       0.95719150       0.55050870
   111  C          0.15383180       0.54280850       0.05050870
   112  C          0.34616820       0.04280850       0.44949130
   113  C          0.10209190       0.55255140       0.94295130
   114  C          0.39790810       0.05255140       0.55704870
   115  C          0.89790810       0.44744860       0.05704870
   116  C          0.60209190       0.94744860       0.44295130
