data_NUYCUG
_symmetry_space_group_name_H-M    'P1'
_symmetry_Int_Tables_number       1
loop_
_symmetry_equiv_pos_site_id
_symmetry_equiv_pos_as_xyz
1 x,y,z
_cell_length_a                   4.214001
_cell_length_b                   19.92524
_cell_length_c                   13.33643
_cell_angle_alpha                90.0
_cell_angle_beta                 98.5912
_cell_angle_gamma                90.0
loop_
_atom_site_label
_atom_site_type_symbol
_atom_site_fract_x
_atom_site_fract_y
_atom_site_fract_z
     1  O          0.88397000       0.93069500       0.68920800
     2  O          0.61603000       0.43069500       0.81079200
     3  O          0.11603000       0.06930500       0.31079200
     4  O          0.38397000       0.56930500       0.18920800
     5  H          0.71440000       0.90738800       0.67801600
     6  H          0.78560000       0.40738800       0.82198400
     7  H          0.28560000       0.09261200       0.32198400
     8  H          0.21440000       0.59261200       0.17801600
     9  H          0.02060000       0.90378800       0.66601700
    10  H          0.47940000       0.40378800       0.83398300
    11  H         -0.02060000       0.09621200       0.33398300
    12  H          0.52060000       0.59621200       0.16601700
    13  H          0.28650000       0.27641000       0.30231500
    14  H          0.21350000       0.77641000       0.19768500
    15  H          0.71350000       0.72359000       0.69768500
    16  H          0.78650000       0.22359000       0.80231500
    17  H          0.62940000       0.22369000       0.06541300
    18  H          0.87060000       0.72369000       0.43458700
    19  H          0.37060000       0.77631000       0.93458700
    20  H          0.12940000       0.27631000       0.56541300
    21  H          0.18740000       0.38889000       0.25471400
    22  H          0.31260000       0.88889000       0.24528600
    23  H          0.81260000       0.61111000       0.74528600
    24  H          0.68740000       0.11111000       0.75471400
    25  H          0.56250000       0.32891000       0.03061600
    26  H          0.93750000       0.82891000       0.46938400
    27  H          0.43750000       0.67109000       0.96938400
    28  H          0.06250000       0.17109000       0.53061600
    29  H          0.00250000       0.19181200       0.20591600
    30  H          0.49750000       0.69181200       0.29408400
    31  H         -0.00250000       0.80818800       0.79408400
    32  H          0.50250000       0.30818800       0.70591600
    33  H          0.92960000       0.47181200       0.13081800
    34  H          0.57040000       0.97181200       0.36918200
    35  H          0.07040000       0.52818800       0.86918200
    36  H          0.42960000       0.02818800       0.63081800
    37  H          0.58470000       0.45341300       0.10421900
    38  H          0.91530000       0.95341300       0.39578100
    39  H          0.41530000       0.54658700       0.89578100
    40  H          0.08470000       0.04658700       0.60421900
    41  H          0.81760000       0.44291400       0.02820000
    42  H          0.68240000       0.94291400       0.47180000
    43  H          0.18240000       0.55708600       0.97180000
    44  H          0.31760000       0.05708600       0.52820000
    45  N          0.70273000       0.31948600       0.08125900
    46  N          0.79727000       0.81948600       0.41874100
    47  N          0.29727000       0.68051400       0.91874100
    48  N          0.20273000       0.18051400       0.58125900
    49  C          0.13274000       0.28761800       0.24552110
    50  C          0.36726000       0.78761800       0.25447890
    51  C          0.86726000       0.71238200       0.75447890
    52  C          0.63274000       0.21238200       0.74552110
    53  C          0.86073000       0.37012700       0.13337100
    54  C          0.63927000       0.87012700       0.36662900
    55  C          0.13927000       0.62987300       0.86662900
    56  C          0.36073000       0.12987300       0.63337100
    57  C          0.07944000       0.35423700       0.21809110
    58  C          0.42056000       0.85423700       0.28190890
    59  C          0.92056000       0.64576300       0.78190890
    60  C          0.57944000       0.14576300       0.71809110
    61  C          0.78894000       0.43964700       0.09490120
    62  C          0.71106000       0.93964700       0.40509880
    63  C          0.21106000       0.56035300       0.90509880
    64  C          0.28894000       0.06035300       0.59490120
    65  C          0.74964000       0.25457700       0.10614110
    66  C          0.75036000       0.75457700       0.39385890
    67  C          0.25036000       0.74542300       0.89385890
    68  C          0.24964000       0.24542300       0.60614110
    69  C         -0.03196000       0.23705700       0.18844110
    70  C          0.53196000       0.73705700       0.31155890
    71  C          0.03196000       0.76294300       0.81155890
    72  C          0.46804000       0.26294300       0.68844110
    73  H          0.01560000       0.97998700       0.78951900
    74  H          0.48440000       0.47998700       0.71048100
    75  H         -0.01560000       0.02001300       0.21048100
    76  H          0.51560000       0.52001300       0.28951900
    77  Cl         0.13979800       0.13792716       0.95547200
    78  Cl         0.36020200       0.63792716       0.54452800
    79  Cl         0.86020200       0.86207284       0.04452800
    80  Cl         0.63979800       0.36207284       0.45547200
    81  O          0.04582000       0.01484500       0.82968700
    82  O          0.45418000       0.51484500       0.67031300
    83  O          0.95418000       0.98515500       0.17031300
    84  O          0.54582000       0.48515500       0.32968700
    85  O          0.60543000       0.09922500       0.13354800
    86  O          0.89457000       0.59922500       0.36645200
    87  O          0.39457000       0.90077500       0.86645200
    88  O          0.10543000       0.40077500       0.63354800
    89  C          0.32983000       0.06168700       0.97696100
    90  C          0.17017000       0.56168700       0.52303900
    91  C          0.67017000       0.93831300       0.02303900
    92  C          0.82983000       0.43831300       0.47696100
    93  C          0.55613000       0.05515700       0.07022100
    94  C          0.94387000       0.55515700       0.42977900
    95  C          0.44387000       0.94484300       0.92977900
    96  C          0.05613000       0.44484300       0.57022100
    97  C          0.26383000       0.01029700       0.91129100
    98  C          0.23617000       0.51029700       0.58870900
    99  C          0.73617000       0.98970300       0.08870900
   100  C          0.76383000       0.48970300       0.41129100
   101  Cl         0.16459800       0.33276717       0.90145200
   102  Cl         0.33540200       0.83276717       0.59854800
   103  Cl         0.83540200       0.66723283       0.09854800
   104  Cl         0.66459800       0.16723283       0.40145200
