data_NUYCOA
_symmetry_space_group_name_H-M    'P1'
_symmetry_Int_Tables_number       1
loop_
_symmetry_equiv_pos_site_id
_symmetry_equiv_pos_as_xyz
1 x,y,z
_cell_length_a                   7.60888
_cell_length_b                   10.31876
_cell_length_c                   13.21291
_cell_angle_alpha                90.0
_cell_angle_beta                 97.0338
_cell_angle_gamma                90.0
loop_
_atom_site_label
_atom_site_type_symbol
_atom_site_fract_x
_atom_site_fract_y
_atom_site_fract_z
     1  Cl         0.14508700       0.94422600       0.13932400
     2  Cl         0.35491300       0.44422600       0.36067600
     3  Cl         0.85491300       0.05577400       0.86067600
     4  Cl         0.64508700       0.55577400       0.63932400
     5  Cl         0.00330900       0.26244600       0.65081500
     6  Cl         0.49669100       0.76244600       0.84918500
     7  Cl        -0.00330900       0.73755400       0.34918500
     8  Cl         0.50330900       0.23755400       0.15081500
     9  O          0.27463000       0.47022000       0.65655150
    10  O          0.22537000       0.97022000       0.84344850
    11  O          0.72537000       0.52978000       0.34344850
    12  O          0.77463000       0.02978000       0.15655150
    13  O          0.24172000       0.68425170       0.53911160
    14  O          0.25828000       0.18425170       0.96088840
    15  O          0.75828000       0.31574830       0.46088840
    16  O          0.74172000       0.81574830       0.03911160
    17  C          0.14033000       0.48012000       0.58258190
    18  C          0.35967000       0.98012000       0.91741810
    19  C          0.85967000       0.51988000       0.41741810
    20  C          0.64033000       0.01988000       0.08258190
    21  C          0.13373000       0.59852000       0.51554180
    22  C          0.36627000       0.09852000       0.98445820
    23  C          0.86627000       0.40148000       0.48445820
    24  C          0.63373000       0.90148000       0.01554180
    25  C          0.00763000       0.39242000       0.56929180
    26  C          0.49237000       0.89242000       0.93070820
    27  C         -0.00763000       0.60758000       0.43070820
    28  C          0.50763000       0.10758000       0.06929180
    29  H          0.36250000       0.51850000       0.65330000
    30  H          0.13750000       0.01850000       0.84670000
    31  H          0.63750000       0.48150000       0.34670000
    32  H          0.86250000       0.98150000       0.15330000
    33  H          0.63750000       0.48250000       0.34730000
    34  H          0.86250000       0.98250000       0.15270000
    35  H          0.36250000       0.51750000       0.65270000
    36  H          0.13750000       0.01750000       0.84730000
    37  N          0.37033000       0.21372000       0.50657160
    38  N          0.12967000       0.71372000      -0.00657160
    39  N          0.62967000       0.78628000       0.49342840
    40  N          0.87033000       0.28628000       0.00657160
    41  C          0.26243000       0.11602000       0.47094180
    42  C          0.23757000       0.61602000       0.02905820
    43  C          0.73757000       0.88398000       0.52905820
    44  C          0.76243000       0.38398000       0.97094180
    45  C          0.47624000       0.21063000       0.59632000
    46  C          0.02376000       0.71063000       0.90368000
    47  C          0.52376000       0.78937000       0.40368000
    48  C          0.97624000       0.28937000       0.09632000
    49  C          0.47834000       0.10243000       0.65642000
    50  C          0.02166000       0.60243000       0.84358000
    51  C          0.52166000       0.89757000       0.34358000
    52  C          0.97834000       0.39757000       0.15642000
    53  C          0.26464000       0.00542000       0.53032000
    54  C          0.23536000       0.50542000       0.96968000
    55  C          0.73536000      -0.00542000       0.46968000
    56  C          0.76464000       0.49458000       0.03032000
    57  C          0.37164000      -0.00063000       0.62262000
    58  C          0.12836000       0.49937000       0.87738000
    59  C          0.62836000       0.00063000       0.37738000
    60  C          0.87164000       0.50063000       0.12262000
    61  C          0.15034000       0.13253000       0.37092000
    62  C          0.34966000       0.63253000       0.12908000
    63  C          0.84966000       0.86747000       0.62908000
    64  C          0.65034000       0.36747000       0.87092000
    65  H          0.56040000       0.09330000       0.71501900
    66  H          0.93960000       0.59330000       0.78498100
    67  H          0.43960000       0.90670000       0.28498100
    68  H          0.06040000       0.40670000       0.21501900
    69  H          0.18650000       0.94060000       0.50130000
    70  H          0.31350000       0.44060000      -0.00130000
    71  H          0.81350000       0.05940000       0.49870000
    72  H          0.68650000       0.55940000       0.00130000
    73  H          0.37340000       0.92160000       0.65930000
    74  H          0.12660000       0.42160000       0.84070000
    75  H          0.62660000       0.07840000       0.34070000
    76  H          0.87340000       0.57840000       0.15930000
    77  H          0.55440000       0.27630000       0.61430000
    78  H          0.94560000       0.77630000       0.88570000
    79  H          0.44560000       0.72370000       0.38570000
    80  H          0.05440000       0.22370000       0.11430000
    81  H          0.37340000       0.28130000       0.47130000
    82  H          0.12660000       0.78130000       0.02870000
    83  H          0.62660000       0.71870000       0.52870000
    84  H          0.87340000       0.21870000       0.97130000
    85  H          0.04540000       0.18340000       0.36230000
    86  H          0.45460000       0.68340000       0.13770000
    87  H          0.95460000       0.81660000       0.63770000
    88  H          0.54540000       0.31660000       0.86230000
    89  H          0.12060000       0.04620000       0.34740000
    90  H          0.37940000       0.54620000       0.15260000
    91  H          0.87940000       0.95380000       0.65260000
    92  H          0.62060000       0.45380000       0.84740000
    93  H          0.21650000       0.16240000       0.31730000
    94  H          0.28350000       0.66240000       0.18270000
    95  H          0.78350000       0.83760000       0.68270000
    96  H          0.71650000       0.33760000       0.81730000
