data_NUZKIC
_symmetry_space_group_name_H-M    'P1'
_symmetry_Int_Tables_number       1
loop_
_symmetry_equiv_pos_site_id
_symmetry_equiv_pos_as_xyz
1 x,y,z
_cell_length_a                   9.285611
_cell_length_b                   9.83171
_cell_length_c                   11.896314
_cell_angle_alpha                102.4639
_cell_angle_beta                 111.3588
_cell_angle_gamma                98.2209
loop_
_atom_site_label
_atom_site_type_symbol
_atom_site_fract_x
_atom_site_fract_y
_atom_site_fract_z
     1  I          0.20454500       0.85985600       0.53109300
     2  I          0.79545500       0.14014400       0.46890700
     3  I          0.37781500       0.66640600       0.75475400
     4  I          0.62218500       0.33359400       0.24524600
     5  I          0.71903500       0.87050600       0.04171400
     6  I          0.28096500       0.12949400       0.95828600
     7  N          0.70777440       0.31903470       0.83823410
     8  N          0.29222560       0.68096530       0.16176590
     9  C          0.62722350       0.16636550       0.81701500
    10  C          0.37277650       0.83363450       0.18298500
    11  C          0.49268360       0.09429560       0.70931500
    12  C          0.50731640       0.90570440       0.29068500
    13  H          0.44898360       0.14093560       0.64600500
    14  H          0.55101640       0.85906440       0.35399500
    15  C          0.42147340       0.95460420       0.69325490
    16  C          0.57852660       0.04539580       0.30674510
    17  C          0.48410350       0.88372460       0.78289500
    18  C          0.51589650       0.11627540       0.21710500
    19  C          0.62090350       0.96099450       0.89371470
    20  C          0.37909650       0.03900550       0.10628530
    21  C          0.69245340       0.09877580       0.90974500
    22  C          0.30754660       0.90122420       0.09025500
    23  H          0.78712340       0.14949580       0.98408500
    24  H          0.21287660       0.85050420       0.01591500
    25  C          0.87860300       0.32974680       0.85872600
    26  C          0.12139700       0.67025320       0.14127400
    27  H          0.93014300       0.29291680       0.92748600
    28  H          0.06985700       0.70708320       0.07251400
    29  H          0.93164300       0.42849680       0.87825600
    30  H          0.06835700       0.57150320       0.12174400
    31  H          0.88346300       0.27479680       0.78354600
    32  H          0.11653700       0.72520320       0.21645400
    33  C          0.69761160       0.41265600       0.95141550
    34  C          0.30238840       0.58734400       0.04858450
    35  H          0.74467160       0.37883600       0.02311550
    36  H          0.25532840       0.62116400       0.97688450
    37  H          0.58782160       0.40935600       0.93508550
    38  H          0.41217840       0.59064400       0.06491450
    39  H          0.75380160       0.50972600       0.96839550
    40  H          0.24619840       0.49027400       0.03160450
    41  C          0.63262250       0.37750610       0.73050550
    42  C          0.36737750       0.62249390       0.26949450
    43  H          0.63656250       0.32043610       0.65572550
    44  H          0.36343750       0.67956390       0.34427450
    45  H          0.68956250       0.47498610       0.75000550
    46  H          0.31043750       0.52501390       0.24999450
    47  H          0.52358250       0.37461610       0.71669550
    48  H          0.47641750       0.62538390       0.28330450
    49  C          0.88783050       0.58642260       0.60358570
    50  C          0.11216950       0.41357740       0.39641430
    51  H          0.90323050       0.61441260       0.53550570
    52  H          0.09676950       0.38558740       0.46449430
    53  H          0.77583050       0.55355260       0.58112570
    54  H          0.22416950       0.44644740       0.41887430
    55  H          0.93941050       0.51045260       0.61976570
    56  H          0.06058950       0.48954740       0.38023430
    57  C          0.83328800       0.83679000       0.69056880
    58  C          0.16671200       0.16321000       0.30943120
    59  H          0.84808800       0.87239000       0.62546880
    60  H          0.15191200       0.12761000       0.37453120
    61  H          0.84888800       0.91619000       0.76047880
    62  H          0.15111200       0.08381000       0.23952120
    63  H          0.72708800       0.77759000       0.65819880
    64  H          0.27291200       0.22241000       0.34180120
    65  O          0.94210280       0.68355450       0.84090410
    66  O          0.05789720       0.31644550       0.15909590
    67  S          0.97080780       0.73550820       0.74052160
    68  S          0.02919220       0.26449180       0.25947840
    69  I          0.18323500       0.30717400       0.71863400
    70  I          0.81676500       0.69282600       0.28136600
