data_OBAFOQ
_symmetry_space_group_name_H-M    'P1'
_symmetry_Int_Tables_number       1
loop_
_symmetry_equiv_pos_site_id
_symmetry_equiv_pos_as_xyz
1 x,y,z
_cell_length_a                   7.24072
_cell_length_b                   7.514501
_cell_length_c                   17.56143
_cell_angle_alpha                90.0
_cell_angle_beta                 96.8262
_cell_angle_gamma                90.0
loop_
_atom_site_label
_atom_site_type_symbol
_atom_site_fract_x
_atom_site_fract_y
_atom_site_fract_z
     1  O          0.62774130       0.03716150       0.91033500
     2  O          0.37225870       0.53716150       0.08966500
     3  O         -0.01256860       0.12539160       0.90010600
     4  O          0.01256860       0.62539160       0.09989400
     5  H          0.88890000       0.17180000       0.88270000
     6  H          0.11110000       0.67180000       0.11730000
     7  O          0.81612150       0.67406160       0.90050600
     8  O          0.18387850       0.17406160       0.09949400
     9  O          0.40800150       0.81591180      -0.00661400
    10  O          0.59199850       0.31591180       0.00661400
    11  H          0.41690000       0.73990000       0.02710000
    12  H          0.58310000       0.23990000       0.97290000
    13  C          0.50352000       0.75752000       0.93132800
    14  C          0.49648000       0.25752000       0.06867200
    15  H          0.45450000       0.64580000       0.90830000
    16  H          0.54550000       0.14580000       0.09170000
    17  C          0.95178190       0.95472000       0.92979800
    18  C          0.04821810       0.45472000       0.07020200
    19  H          0.05240000       0.92280000       0.96980000
    20  H          0.94760000       0.42280000       0.03020000
    21  C          0.71192000       0.75072000       0.95806800
    22  C          0.28808000       0.25072000       0.04193200
    23  H          0.73880000       0.69090000       0.00770000
    24  H          0.26120000       0.19090000      -0.00770000
    25  C          0.49352000       0.91032000       0.87516800
    26  C          0.50648000       0.41032000       0.12483200
    27  H          0.52620000       0.87150000       0.82580000
    28  H          0.47380000       0.37150000       0.17420000
    29  H          0.36970000       0.96160000       0.86810000
    30  H          0.63030000       0.46160000       0.13190000
    31  C          0.76615180       0.94612000       0.96260700
    32  C          0.23384820       0.44612000       0.03739300
    33  H          0.77400000      -0.00690000       0.01490000
    34  H          0.22600000       0.49310000       0.98510000
    35  C          0.92912000       0.80792000       0.86909900
    36  C          0.07088000       0.30792000       0.13090100
    37  H          0.86770000       0.85320000       0.82090000
    38  H          0.13230000       0.35320000       0.17910000
    39  H          0.04910000       0.75940000       0.86060000
    40  H          0.95090000       0.25940000       0.13940000
    41  O          0.96543170       0.37261150       0.33823600
    42  O          0.03456830       0.87261150       0.66176400
    43  H          0.00060000       0.28220000       0.36180000
    44  H         -0.00060000       0.78220000       0.63820000
    45  O          0.64714150       0.08812150       0.40333600
    46  O          0.35285850       0.58812150       0.59666400
    47  H          0.62760000       0.05020000       0.44540000
    48  H          0.37240000       0.55020000       0.55460000
    49  O          0.92035160       0.46247160       0.45522600
    50  O          0.07964840       0.96247160       0.54477400
    51  O          0.79068160       0.88492160       0.16267600
    52  O          0.20931840       0.38492160       0.83732400
    53  H          0.84420000       0.80360000       0.14320000
    54  H          0.15580000       0.30360000       0.85680000
    55  C          0.83692000       0.65992000       0.34947800
    56  C          0.16308000       0.15992000       0.65052200
    57  C          0.71161190       0.95242000       0.36125800
    58  C          0.28838810       0.45242000       0.63874200
    59  C          0.77162000       0.79114190       0.39522800
    60  C          0.22838000       0.29114190       0.60477200
    61  H          0.76780000       0.77200000       0.44730000
    62  H          0.23220000       0.27200000       0.55270000
    63  C          0.78309190       0.84852000       0.23887700
    64  C          0.21690810       0.34852000       0.76112300
    65  C          0.71782000      -0.01738000       0.28350800
    66  C          0.28218000       0.48262000       0.71649200
    67  H          0.67900000       0.09090000       0.26150000
    68  H          0.32100000       0.59090000       0.73850000
    69  C          0.90896190       0.49102000       0.38653800
    70  C          0.09103810      -0.00898000       0.61346200
    71  C          0.84082000       0.68542000       0.27095800
    72  C          0.15918000       0.18542000       0.72904200
    73  H          0.88110000       0.59520000       0.24060000
    74  H          0.11890000       0.09520000       0.75940000
    75  O          0.53831170       0.87492850       0.65858600
    76  O          0.46168830       0.37492850       0.34141400
    77  H          0.50050000       0.78430000       0.63590000
    78  H          0.49950000       0.28430000       0.36410000
    79  O          0.85228150       0.59100150       0.59077600
    80  O          0.14771850       0.09100150       0.40922400
    81  H          0.87670000       0.55340000       0.54930000
    82  H          0.12330000       0.05340000       0.45070000
    83  O          0.57848160       0.96009840       0.54001600
    84  O          0.42151840       0.46009840       0.45998400
    85  O          0.72076170       0.36571150       0.83275600
    86  O          0.27923830       0.86571150       0.16724400
    87  H          0.75610000       0.46580000       0.84620000
    88  H          0.24390000       0.96580000       0.15380000
    89  C          0.78818190       0.45377190       0.63218800
    90  C          0.21181810       0.95377190       0.36781200
    91  C          0.59173190      -0.00822000       0.60860800
    92  C          0.40826810       0.49178000       0.39139200
    93  C          0.66292000       0.18702000       0.72297800
    94  C          0.33708000       0.68702000       0.27702200
    95  H          0.62210000       0.09720000       0.75330000
    96  H          0.37790000       0.59720000       0.24670000
    97  C          0.78522000       0.48382000       0.71025800
    98  C          0.21478000      -0.01618000       0.28974200
    99  H          0.82380000       0.59230000       0.73210000
   100  H          0.17620000       0.09230000       0.26790000
   101  C          0.66405190       0.16162000       0.64452800
   102  C          0.33594810       0.66162000       0.35547200
   103  C          0.72348190       0.34832000       0.75516800
   104  C          0.27651810       0.84832000       0.24483200
   105  C          0.72802000       0.29307190       0.59836800
   106  C          0.27198000       0.79307190       0.40163200
   107  H          0.73050000       0.27410000       0.54620000
   108  H          0.26950000       0.77410000       0.45380000
