data_OBOVUY
_symmetry_space_group_name_H-M    'P1'
_symmetry_Int_Tables_number       1
loop_
_symmetry_equiv_pos_site_id
_symmetry_equiv_pos_as_xyz
1 x,y,z
_cell_length_a                   13.2883
_cell_length_b                   23.5415
_cell_length_c                   9.062718
_cell_angle_alpha                90.0
_cell_angle_beta                 98.273
_cell_angle_gamma                90.0
loop_
_atom_site_label
_atom_site_type_symbol
_atom_site_fract_x
_atom_site_fract_y
_atom_site_fract_z
     1  S          0.50000000       0.01366300       0.25000000
     2  S          0.00000000       0.51366300       0.25000000
     3  S          0.50000000       0.98633700       0.75000000
     4  S          0.00000000       0.48633700       0.75000000
     5  S          0.18156400       0.05553200       0.77864400
     6  S          0.81843600       0.05553200       0.72135600
     7  S          0.68156400       0.55553200       0.77864400
     8  S          0.31843600       0.55553200       0.72135600
     9  S          0.81843600       0.94446800       0.22135600
    10  S          0.18156400       0.94446800       0.27864400
    11  S          0.31843600       0.44446800       0.22135600
    12  S          0.68156400       0.44446800       0.27864400
    13  O          0.06743100       0.91387400       0.60920850
    14  O          0.93256900       0.91387400       0.89079150
    15  O          0.56743100       0.41387400       0.60920850
    16  O          0.43256900       0.41387400       0.89079150
    17  O          0.93256900       0.08612600       0.39079150
    18  O          0.06743100       0.08612600       0.10920850
    19  O          0.43256900       0.58612600       0.39079150
    20  O          0.56743100       0.58612600       0.10920850
    21  O          0.39123100       0.20642500       0.24719140
    22  O          0.60876900       0.20642500       0.25280860
    23  O          0.89123100       0.70642500       0.24719140
    24  O          0.10876900       0.70642500       0.25280860
    25  O          0.60876900       0.79357500       0.75280860
    26  O          0.39123100       0.79357500       0.74719140
    27  O          0.10876900       0.29357500       0.75280860
    28  O          0.89123100       0.29357500       0.74719140
    29  O          0.23045100       0.89506400       0.85559850
    30  O          0.76954900       0.89506400       0.64440150
    31  O          0.73045100       0.39506400       0.85559850
    32  O          0.26954900       0.39506400       0.64440150
    33  O          0.76954900       0.10493600       0.14440150
    34  O          0.23045100       0.10493600       0.35559850
    35  O          0.26954900       0.60493600       0.14440150
    36  O          0.73045100       0.60493600       0.35559850
    37  C          0.42699130       0.06598800       0.14532000
    38  C          0.57300870       0.06598800       0.35468000
    39  C          0.92699130       0.56598800       0.14532000
    40  C          0.07300870       0.56598800       0.35468000
    41  C          0.57300870       0.93401200       0.85468000
    42  C          0.42699130       0.93401200       0.64532000
    43  C          0.07300870       0.43401200       0.85468000
    44  C          0.92699130       0.43401200       0.64532000
    45  N          0.34663110       0.05550700       0.03454180
    46  N          0.65336890       0.05550700       0.46545820
    47  N          0.84663110       0.55550700       0.03454180
    48  N          0.15336890       0.55550700       0.46545820
    49  N          0.65336890       0.94449300       0.96545820
    50  N          0.34663110       0.94449300       0.53454180
    51  N          0.15336890       0.44449300       0.96545820
    52  N          0.84663110       0.44449300       0.53454180
    53  C          0.24046130      -0.00282800       0.86968000
    54  C          0.75953870      -0.00282800       0.63032000
    55  C          0.74046130       0.49717200       0.86968000
    56  C          0.25953870       0.49717200       0.63032000
    57  C          0.75953870       0.00282800       0.13032000
    58  C          0.24046130       0.00282800       0.36968000
    59  C          0.25953870       0.50282800       0.13032000
    60  C          0.74046130       0.50282800       0.36968000
    61  O          0.37191110       0.18269600       0.00449150
    62  O          0.62808890       0.18269600       0.49550850
    63  O          0.87191110       0.68269600       0.00449150
    64  O          0.12808890       0.68269600       0.49550850
    65  O          0.62808890       0.81730400      -0.00449150
    66  O          0.37191110       0.81730400       0.50449150
    67  O          0.12808890       0.31730400      -0.00449150
    68  O          0.87191110       0.31730400       0.50449150
    69  C          0.19872140       0.94777200       0.80748000
    70  C          0.80127860       0.94777200       0.69252000
    71  C          0.69872140       0.44777200       0.80748000
    72  C          0.30127860       0.44777200       0.69252000
    73  C          0.80127860       0.05222800       0.19252000
    74  C          0.19872140       0.05222800       0.30748000
    75  C          0.30127860       0.55222800       0.19252000
    76  C          0.69872140       0.55222800       0.30748000
    77  C          0.15966150       0.85138200       0.79448000
    78  C          0.84033850       0.85138200       0.70552000
    79  C          0.65966150       0.35138200       0.79448000
    80  C          0.34033850       0.35138200       0.70552000
    81  C          0.84033850       0.14861800       0.20552000
    82  C          0.15966150       0.14861800       0.29448000
    83  C          0.34033850       0.64861800       0.20552000
    84  C          0.65966150       0.64861800       0.29448000
    85  H          0.10040000       0.85110000       0.84940000
    86  H          0.89960000       0.85110000       0.65060000
    87  H          0.60040000       0.35110000       0.84940000
    88  H          0.39960000       0.35110000       0.65060000
    89  H          0.89960000       0.14890000       0.15060000
    90  H          0.10040000       0.14890000       0.34940000
    91  H          0.39960000       0.64890000       0.15060000
    92  H          0.60040000       0.64890000       0.34940000
    93  H          0.19310000       0.81380000       0.80770000
    94  H          0.80690000       0.81380000       0.69230000
    95  H          0.69310000       0.31380000       0.80770000
    96  H          0.30690000       0.31380000       0.69230000
    97  H          0.80690000       0.18620000       0.19230000
    98  H          0.19310000       0.18620000       0.30770000
    99  H          0.30690000       0.68620000       0.19230000
   100  H          0.69310000       0.68620000       0.30770000
   101  C          0.45815130       0.11955800       0.19102000
   102  C          0.54184870       0.11955800       0.30898000
   103  C          0.95815130       0.61955800       0.19102000
   104  C          0.04184870       0.61955800       0.30898000
   105  C          0.54184870       0.88044200       0.80898000
   106  C          0.45815130       0.88044200       0.69102000
   107  C          0.04184870       0.38044200       0.80898000
   108  C          0.95815130       0.38044200       0.69102000
   109  C          0.40336130       0.17185800       0.13302000
   110  C          0.59663870       0.17185800       0.36698000
   111  C          0.90336130       0.67185800       0.13302000
   112  C          0.09663870       0.67185800       0.36698000
   113  C          0.59663870       0.82814200       0.86698000
   114  C          0.40336130       0.82814200       0.63302000
   115  C          0.09663870       0.32814200       0.86698000
   116  C          0.90336130       0.32814200       0.63302000
   117  C          0.32136130       0.00486800      -0.00962000
   118  C          0.67863870       0.00486800       0.50962000
   119  C          0.82136130       0.50486800      -0.00962000
   120  C          0.17863870       0.50486800       0.50962000
   121  C          0.67863870      -0.00486800       0.00962000
   122  C          0.32136130      -0.00486800       0.49038000
   123  C          0.17863870       0.49513200       0.00962000
   124  C          0.82136130       0.49513200       0.49038000
   125  H          0.35600000       0.97290000       0.03740000
   126  H          0.64400000       0.97290000       0.46260000
   127  H          0.85600000       0.47290000       0.03740000
   128  H          0.14400000       0.47290000       0.46260000
   129  H          0.64400000       0.02710000       0.96260000
   130  H          0.35600000       0.02710000       0.53740000
   131  H          0.14400000       0.52710000       0.96260000
   132  H          0.85600000       0.52710000       0.53740000
   133  C          0.34758160       0.26181800       0.20842000
   134  C          0.65241840       0.26181800       0.29158000
   135  C          0.84758160       0.76181800       0.20842000
   136  C          0.15241840       0.76181800       0.29158000
   137  C          0.65241840       0.73818200       0.79158000
   138  C          0.34758160       0.73818200       0.70842000
   139  C          0.15241840       0.23818200       0.79158000
   140  C          0.84758160       0.23818200       0.70842000
   141  H          0.27620000       0.25800000       0.16010000
   142  H          0.72380000       0.25800000       0.33990000
   143  H          0.77620000       0.75800000       0.16010000
   144  H          0.22380000       0.75800000       0.33990000
   145  H          0.72380000       0.74200000       0.83990000
   146  H          0.27620000       0.74200000       0.66010000
   147  H          0.22380000       0.24200000       0.83990000
   148  H          0.77620000       0.24200000       0.66010000
   149  H          0.38680000       0.28170000       0.13910000
   150  H          0.61320000       0.28170000       0.36090000
   151  H          0.88680000       0.78170000       0.13910000
   152  H          0.11320000       0.78170000       0.36090000
   153  H          0.61320000       0.71830000       0.86090000
   154  H          0.38680000       0.71830000       0.63910000
   155  H          0.11320000       0.21830000       0.86090000
   156  H          0.88680000       0.21830000       0.63910000
   157  C          0.10182150       0.01334800       0.65958000
   158  C          0.89817850       0.01334800       0.84042000
   159  C          0.60182150       0.51334800       0.65958000
   160  C          0.39817850       0.51334800       0.84042000
   161  C          0.89817850       0.98665200       0.34042000
   162  C          0.10182150       0.98665200       0.15958000
   163  C          0.39817850       0.48665200       0.34042000
   164  C          0.60182150       0.48665200       0.15958000
   165  H          0.05140000       0.02750000       0.58350000
   166  H          0.94860000       0.02750000       0.91650000
   167  H          0.55140000       0.52750000       0.58350000
   168  H          0.44860000       0.52750000       0.91650000
   169  H          0.94860000       0.97250000       0.41650000
   170  H          0.05140000       0.97250000       0.08350000
   171  H          0.44860000       0.47250000       0.41650000
   172  H          0.55140000       0.47250000       0.08350000
   173  C          0.11942140       0.95751200       0.68728000
   174  C          0.88057860       0.95751200       0.81272000
   175  C          0.61942140       0.45751200       0.68728000
   176  C          0.38057860       0.45751200       0.81272000
   177  C          0.88057860       0.04248800       0.31272000
   178  C          0.11942140       0.04248800       0.18728000
   179  C          0.38057860       0.54248800       0.31272000
   180  C          0.61942140       0.54248800       0.18728000
   181  C          0.12391150       0.86157200       0.63118000
   182  C          0.87608850       0.86157200       0.86882000
   183  C          0.62391150       0.36157200       0.63118000
   184  C          0.37608850       0.36157200       0.86882000
   185  C          0.87608850       0.13842800       0.36882000
   186  C          0.12391150       0.13842800       0.13118000
   187  C          0.37608850       0.63842800       0.36882000
   188  C          0.62391150       0.63842800       0.13118000
   189  H          0.18340000       0.86330000       0.57690000
   190  H          0.81660000       0.86330000       0.92310000
   191  H          0.68340000       0.36330000       0.57690000
   192  H          0.31660000       0.36330000       0.92310000
   193  H          0.81660000       0.13670000       0.42310000
   194  H          0.18340000       0.13670000       0.07690000
   195  H          0.31660000       0.63670000       0.42310000
   196  H          0.68340000       0.63670000       0.07690000
   197  H          0.08030000       0.82960000       0.59000000
   198  H          0.91970000       0.82960000       0.91000000
   199  H          0.58030000       0.32960000       0.59000000
   200  H          0.41970000       0.32960000       0.91000000
   201  H          0.91970000       0.17040000       0.41000000
   202  H          0.08030000       0.17040000       0.09000000
   203  H          0.41970000       0.67040000       0.41000000
   204  H          0.58030000       0.67040000       0.09000000
   205  C          0.35282000       0.29398100       0.35263000
   206  C          0.64718000       0.29398100       0.14737000
   207  C          0.85282000       0.79398100       0.35263000
   208  C          0.14718000       0.79398100       0.14737000
   209  C          0.64718000       0.70601900       0.64737000
   210  C          0.35282000       0.70601900       0.85263000
   211  C          0.14718000       0.20601900       0.64737000
   212  C          0.85282000       0.20601900       0.85263000
   213  H          0.31620000       0.27290000       0.42150000
   214  H          0.68380000       0.27290000       0.07850000
   215  H          0.81620000       0.77290000       0.42150000
   216  H          0.18380000       0.77290000       0.07850000
   217  H          0.68380000       0.72710000       0.57850000
   218  H          0.31620000       0.72710000       0.92150000
   219  H          0.18380000       0.22710000       0.57850000
   220  H          0.81620000       0.22710000       0.92150000
   221  H          0.32150000       0.33150000       0.33340000
   222  H          0.67850000       0.33150000       0.16660000
   223  H          0.82150000       0.83150000       0.33340000
   224  H          0.17850000       0.83150000       0.16660000
   225  H          0.67850000       0.66850000       0.66660000
   226  H          0.32150000       0.66850000       0.83340000
   227  H          0.17850000       0.16850000       0.66660000
   228  H          0.82150000       0.16850000       0.83340000
   229  H          0.42400000       0.29860000       0.39700000
   230  H          0.57600000       0.29860000       0.10300000
   231  H          0.92400000       0.79860000       0.39700000
   232  H          0.07600000       0.79860000       0.10300000
   233  H          0.57600000       0.70140000       0.60300000
   234  H          0.42400000       0.70140000       0.89700000
   235  H          0.07600000       0.20140000       0.60300000
   236  H          0.92400000       0.20140000       0.89700000
   237  O         -0.00000000       0.74454100       0.75000000
   238  O          0.50000000       0.24454100       0.75000000
   239  O          0.00000000       0.25545900       0.25000000
   240  O          0.50000000       0.75545900       0.25000000
   241  C         -0.00000000       0.69316130       0.75000000
   242  C          0.50000000       0.19316130       0.75000000
   243  C          0.00000000       0.30683870       0.25000000
   244  C          0.50000000       0.80683870       0.25000000
   245  C          0.92219820       0.65932120       0.65443000
   246  C          0.07780180       0.65932120       0.84557000
   247  C          0.42219820       0.15932120       0.65443000
   248  C          0.57780180       0.15932120       0.84557000
   249  C          0.07780180       0.34067880       0.34557000
   250  C          0.92219820       0.34067880       0.15443000
   251  C          0.57780180       0.84067880       0.34557000
   252  C          0.42219820       0.84067880       0.15443000
   253  H          0.88010000       0.63880000       0.71720000
   254  H          0.11990000       0.63880000       0.78280000
   255  H          0.38010000       0.13880000       0.71720000
   256  H          0.61990000       0.13880000       0.78280000
   257  H          0.11990000       0.36120000       0.28280000
   258  H          0.88010000       0.36120000       0.21720000
   259  H          0.61990000       0.86120000       0.28280000
   260  H          0.38010000       0.86120000       0.21720000
   261  H          0.95590000       0.63200000       0.59610000
   262  H          0.04410000       0.63200000       0.90390000
   263  H          0.45590000       0.13200000       0.59610000
   264  H          0.54410000       0.13200000       0.90390000
   265  H          0.04410000       0.36800000       0.40390000
   266  H          0.95590000       0.36800000       0.09610000
   267  H          0.54410000       0.86800000       0.40390000
   268  H          0.45590000       0.86800000       0.09610000
   269  H          0.87910000       0.68470000       0.58670000
   270  H          0.12090000       0.68470000       0.91330000
   271  H          0.37910000       0.18470000       0.58670000
   272  H          0.62090000       0.18470000       0.91330000
   273  H          0.12090000       0.31530000       0.41330000
   274  H          0.87910000       0.31530000       0.08670000
   275  H          0.62090000       0.81530000       0.41330000
   276  H          0.37910000       0.81530000       0.08670000
