data_OCAKEL
_symmetry_space_group_name_H-M    'P1'
_symmetry_Int_Tables_number       1
loop_
_symmetry_equiv_pos_site_id
_symmetry_equiv_pos_as_xyz
1 x,y,z
_cell_length_a                   8.12676
_cell_length_b                   39.8613
_cell_length_c                   6.40044
_cell_angle_alpha                90.0
_cell_angle_beta                 93.6034
_cell_angle_gamma                90.0
loop_
_atom_site_label
_atom_site_type_symbol
_atom_site_fract_x
_atom_site_fract_y
_atom_site_fract_z
     1  N          0.71486000       0.48531110       0.59597000
     2  N          0.28514000       0.98531110       0.90403000
     3  N          0.28514000       0.51468890       0.40403000
     4  N          0.71486000       0.01468890       0.09597000
     5  C          0.78578000       0.47601140       0.42361000
     6  C          0.21422000       0.97601140       0.07639000
     7  C          0.21422000       0.52398860       0.57639000
     8  C          0.78578000       0.02398860       0.92361000
     9  H          0.80880000       0.45340000       0.40530000
    10  H          0.19120000       0.95340000       0.09470000
    11  H          0.19120000       0.54660000       0.59470000
    12  H          0.80880000       0.04660000       0.90530000
    13  C          0.82718000       0.49856140       0.26931000
    14  C          0.17282000      -0.00143860       0.23069000
    15  C          0.17282000       0.50143860       0.73069000
    16  C          0.82718000       0.00143860       0.76931000
    17  H          0.87440000       0.49070000       0.15000000
    18  H          0.12560000       0.99070000       0.35000000
    19  H          0.12560000       0.50930000       0.85000000
    20  H          0.87440000       0.00930000       0.65000000
    21  C          0.79846000       0.53223130       0.29228000
    22  C          0.20154000       0.03223130       0.20772000
    23  C          0.20154000       0.46776870       0.70772000
    24  C          0.79846000       0.96776870       0.79228000
    25  C          0.72296000       0.54207130       0.47137000
    26  C          0.27704000       0.04207130       0.02863000
    27  C          0.27704000       0.45792870       0.52863000
    28  C          0.72296000       0.95792870       0.97137000
    29  H          0.69860000       0.56450000       0.49340000
    30  H          0.30140000       0.06450000       0.00660000
    31  H          0.30140000       0.43550000       0.50660000
    32  H          0.69860000       0.93550000      -0.00660000
    33  C          0.68407000       0.51789140       0.61708000
    34  C          0.31593000       0.01789140       0.88292000
    35  C          0.31593000       0.48210860       0.38292000
    36  C          0.68407000       0.98210860       0.11708000
    37  H          0.63360000       0.52490000       0.73600000
    38  H          0.36640000       0.02490000       0.76400000
    39  H          0.36640000       0.47510000       0.26400000
    40  H          0.63360000       0.97510000       0.23600000
    41  C          0.84467000       0.55576140       0.12818000
    42  C          0.15533000       0.05576140       0.37182000
    43  C          0.15533000       0.44423860       0.87182000
    44  C          0.84467000       0.94423860       0.62818000
    45  H          0.90100000       0.54660000       0.01970000
    46  H          0.09900000       0.04660000       0.48030000
    47  H          0.09900000       0.45340000      -0.01970000
    48  H          0.90100000       0.95340000       0.51970000
    49  C          0.81546000       0.58806130       0.11707000
    50  C          0.18454000       0.08806130       0.38293000
    51  C          0.18454000       0.41193870       0.88293000
    52  C          0.81546000       0.91193870       0.61707000
    53  H          0.75900000       0.59750000       0.22460000
    54  H          0.24100000       0.09750000       0.27540000
    55  H          0.24100000       0.40250000       0.77540000
    56  H          0.75900000       0.90250000       0.72460000
    57  C          0.86356000       0.61096120       0.95013000
    58  C          0.13644000       0.11096120       0.54987000
    59  C          0.13644000       0.38903880       0.04987000
    60  C          0.86356000       0.88903880       0.45013000
    61  C          0.94846000       0.59838140       0.78473000
    62  C          0.05154000       0.09838140       0.71527000
    63  C          0.05154000       0.40161860       0.21527000
    64  C          0.94846000       0.90161860       0.28473000
    65  H          0.97590000       0.57570000       0.78280000
    66  H          0.02410000       0.07570000       0.71720000
    67  H          0.02410000       0.42430000       0.21720000
    68  H          0.97590000       0.92430000       0.28280000
    69  C         -0.00654000       0.61941140       0.61972000
    70  C          0.00654000       0.11941140       0.88028000
    71  C          0.00654000       0.38058860       0.38028000
    72  C         -0.00654000       0.88058860       0.11972000
    73  H          0.04990000       0.61040000       0.51090000
    74  H          0.95010000       0.11040000      -0.01090000
    75  H          0.95010000       0.38960000       0.48910000
    76  H          0.04990000       0.88960000       0.01090000
    77  C          0.95517000       0.65241140       0.61842000
    78  C          0.04483000       0.15241140       0.88158000
    79  C          0.04483000       0.34758860       0.38158000
    80  C          0.95517000       0.84758860       0.11842000
    81  H         -0.01480000       0.66590000       0.50880000
    82  H          0.01480000       0.16590000      -0.00880000
    83  H          0.01480000       0.33410000       0.49120000
    84  H         -0.01480000       0.83410000       0.00880000
    85  C          0.86906000       0.66657140       0.78412000
    86  C          0.13094000       0.16657140       0.71588000
    87  C          0.13094000       0.33342860       0.21588000
    88  C          0.86906000       0.83342860       0.28412000
    89  C          0.83047000       0.70125150       0.78561000
    90  C          0.16953000       0.20125150       0.71439000
    91  C          0.16953000       0.29874850       0.21439000
    92  C          0.83047000       0.79874850       0.28561000
    93  H          0.86120000       0.71480000       0.67670000
    94  H          0.13880000       0.21480000       0.82330000
    95  H          0.13880000       0.28520000       0.32330000
    96  H          0.86120000       0.78520000       0.17670000
    97  C          0.74868000       0.71501150       0.94469000
    98  C          0.25132000       0.21501150       0.55531000
    99  C          0.25132000       0.28498850       0.05531000
   100  C          0.74868000       0.78498850       0.44469000
   101  H          0.72410000       0.73780000       0.94380000
   102  H          0.27590000       0.23780000       0.55620000
   103  H          0.27590000       0.26220000       0.05620000
   104  H          0.72410000       0.76220000       0.44380000
   105  C          0.70187000       0.69461150       0.10979000
   106  C          0.29813000       0.19461150       0.39021000
   107  C          0.29813000       0.30538850       0.89021000
   108  C          0.70187000       0.80538850       0.60979000
   109  H          0.64500000       0.70400000       0.21710000
   110  H          0.35500000       0.20400000       0.28290000
   111  H          0.35500000       0.29600000       0.78290000
   112  H          0.64500000       0.79600000       0.71710000
   113  C          0.73877000       0.66099140       0.11448000
   114  C          0.26123000       0.16099140       0.38552000
   115  C          0.26123000       0.33900860       0.88552000
   116  C          0.73877000       0.83900860       0.61448000
   117  H          0.70770000       0.64800000       0.22600000
   118  H          0.29230000       0.14800000       0.27400000
   119  H          0.29230000       0.35200000       0.77400000
   120  H          0.70770000       0.85200000       0.72600000
   121  C          0.82326000       0.64575120       0.95233000
   122  C          0.17674000       0.14575120       0.54767000
   123  C          0.17674000       0.35424880       0.04767000
   124  C          0.82326000       0.85424880       0.45233000
   125  I          0.66682400       0.42833200       0.84474500
   126  I          0.33317600       0.92833200       0.65525500
   127  I          0.33317600       0.57166800       0.15525500
   128  I          0.66682400       0.07166800       0.34474500
   129  I          0.65397500       0.28049200       0.42797600
   130  I          0.34602500       0.78049200       0.07202400
   131  I          0.34602500       0.71950800       0.57202400
   132  I          0.65397500       0.21950800       0.92797600
   133  F          0.79524000       0.29761800      -0.01215000
   134  F          0.20476000       0.79761800       0.51215000
   135  F          0.20476000       0.70238200       0.01215000
   136  F          0.79524000       0.20238200       0.48785000
   137  F          0.80314000       0.35410800       0.76714000
   138  F          0.19686000       0.85410800       0.73286000
   139  F          0.19686000       0.64589200       0.23286000
   140  F          0.80314000       0.14589200       0.26714000
   141  F          0.50264000       0.40935800       0.27365000
   142  F          0.49736000       0.90935800       0.22635000
   143  F          0.49736000       0.59064200       0.72635000
   144  F          0.50264000       0.09064200       0.77365000
   145  F          0.49444000       0.35296900       0.49514000
   146  F          0.50556000       0.85296900       0.00486000
   147  F          0.50556000       0.64703100       0.50486000
   148  F          0.49444000       0.14703100      -0.00486000
   149  C          0.72066000       0.32496120       0.06067000
   150  C          0.27934000       0.82496120       0.43933000
   151  C          0.27934000       0.67503880       0.93933000
   152  C          0.72066000       0.17503880       0.56067000
   153  C          0.72436000       0.35442120       0.94577000
   154  C          0.27564000       0.85442120       0.55423000
   155  C          0.27564000       0.64557880       0.05423000
   156  C          0.72436000       0.14557880       0.44577000
   157  C          0.65206000       0.38326110       0.01347000
   158  C          0.34794000       0.88326110       0.48653000
   159  C          0.34794000       0.61673890      -0.01347000
   160  C          0.65206000       0.11673890       0.51347000
   161  C          0.57566000       0.38189120       0.20007000
   162  C          0.42434000       0.88189120       0.29993000
   163  C          0.42434000       0.61810880       0.79993000
   164  C          0.57566000       0.11810880       0.70007000
   165  C          0.57246000       0.35273140       0.31487000
   166  C          0.42754000       0.85273140       0.18513000
   167  C          0.42754000       0.64726860       0.68513000
   168  C          0.57246000       0.14726860       0.81487000
   169  C          0.64367000       0.32396120       0.24697000
   170  C          0.35633000       0.82396120       0.25303000
   171  C          0.35633000       0.67603880       0.75303000
   172  C          0.64367000       0.17603880       0.74697000
