data_OCEGEK
_symmetry_space_group_name_H-M    'P1'
_symmetry_Int_Tables_number       1
loop_
_symmetry_equiv_pos_site_id
_symmetry_equiv_pos_as_xyz
1 x,y,z
_cell_length_a                   7.438415
_cell_length_b                   8.991118
_cell_length_c                   11.8682
_cell_angle_alpha                86.673
_cell_angle_beta                 81.663
_cell_angle_gamma                85.573
loop_
_atom_site_label
_atom_site_type_symbol
_atom_site_fract_x
_atom_site_fract_y
_atom_site_fract_z
     1  N          0.26592000       0.53492000       0.58023170
     2  N          0.73408000       0.46508000       0.41976830
     3  H          0.29400000       0.60380000       0.62060000
     4  H          0.70600000       0.39620000       0.37940000
     5  N          0.21642000       0.41972000       0.42719170
     6  N          0.78358000       0.58028000       0.57280830
     7  N          0.42503000       0.91932000       0.24990190
     8  N          0.57497000       0.08068000       0.75009810
     9  C          0.18143000       0.32432000       0.52302000
    10  C          0.81857000       0.67568000       0.47698000
    11  C          0.12613000       0.17873000       0.53282000
    12  C          0.87387000       0.82127000       0.46718000
    13  H          0.10370000       0.13090000       0.46930000
    14  H          0.89630000       0.86910000       0.53070000
    15  C          0.10573000       0.10833000       0.63922000
    16  C          0.89427000       0.89167000       0.36078000
    17  H          0.06900000       0.01120000       0.64770000
    18  H          0.93100000      -0.01120000       0.35230000
    19  C          0.13873000       0.17913000       0.73452000
    20  C          0.86127000       0.82087000       0.26548000
    21  H          0.12510000       0.12750000       0.80510000
    22  H          0.87490000       0.87250000       0.19490000
    23  C          0.19123000       0.32353000       0.72732000
    24  C          0.80877000       0.67647000       0.27268000
    25  H          0.21170000       0.37070000       0.79150000
    26  H          0.78830000       0.62930000       0.20850000
    27  C          0.21173000       0.39523000       0.62002000
    28  C          0.78827000       0.60477000       0.37998000
    29  C          0.26643000       0.54292000       0.46552000
    30  C          0.73357000       0.45708000       0.53448000
    31  C          0.31893000       0.67503000       0.39222000
    32  C          0.68107000       0.32497000       0.60778000
    33  C          0.33033000       0.67033000       0.27462000
    34  C          0.66967000       0.32967000       0.72538000
    35  H          0.30250000       0.58510000       0.24160000
    36  H          0.69750000       0.41490000       0.75840000
    37  C          0.38353000       0.79423000       0.20732000
    38  C          0.61647000       0.20577000       0.79268000
    39  H          0.39080000       0.79030000       0.12860000
    40  H          0.60920000       0.20970000       0.87140000
    41  C          0.41293000       0.92293000       0.36262000
    42  C          0.58707000       0.07707000       0.63738000
    43  H          0.44080000       0.00970000       0.39340000
    44  H          0.55920000      -0.00970000       0.60660000
    45  C          0.36143000       0.80503000       0.43612000
    46  C          0.63857000       0.19497000       0.56388000
    47  H          0.35530000       0.81250000       0.51440000
    48  H          0.64470000       0.18750000       0.48560000
    49  O          0.60217000       0.12062000       0.12019170
    50  O          0.39783000       0.87938000       0.87980830
    51  O          0.62488000       0.23832000       0.27704160
    52  O          0.37512000       0.76168000       0.72295840
    53  O          0.23904000       0.39653000       0.11012000
    54  O          0.76096000       0.60347000       0.88988000
    55  O          0.12643000       0.26292000       0.26029180
    56  O          0.87357000       0.73708000       0.73970820
    57  C          0.65787000       0.22733000       0.17482000
    58  C          0.34213000       0.77267000       0.82518000
    59  C          0.76876000       0.33403000       0.09672000
    60  C          0.23124000       0.66597000       0.90328000
    61  H          0.81480000       0.40400000       0.14290000
    62  H          0.18520000       0.59600000       0.85710000
    63  H          0.68900000       0.39080000       0.04970000
    64  H          0.31100000       0.60920000       0.95030000
    65  C          0.92716000       0.26373000       0.01972000
    66  C          0.07284000       0.73627000       0.98028000
    67  H          0.98050000       0.34040000       0.96730000
    68  H          0.01950000       0.65960000       0.03270000
    69  H          0.88240000       0.19140000       0.97480000
    70  H          0.11760000       0.80860000       0.02520000
    71  C          0.07584000       0.18543000       0.08332000
    72  C          0.92416000       0.81457000       0.91668000
    73  H          0.02440000       0.10630000       0.13400000
    74  H          0.97560000       0.89370000       0.86600000
    75  H          0.17140000       0.14050000       0.02880000
    76  H          0.82860000       0.85950000       0.97120000
    77  C          0.15574000       0.29303000       0.15133000
    78  C          0.84426000       0.70697000       0.84867000
    79  H          0.17350000       0.33840000       0.30830000
    80  H          0.82650000       0.66160000       0.69170000
    81  H          0.54360000       0.05840000       0.16730000
    82  H          0.45640000       0.94160000       0.83270000
