data_OCIQAT
_symmetry_space_group_name_H-M    'P1'
_symmetry_Int_Tables_number       1
loop_
_symmetry_equiv_pos_site_id
_symmetry_equiv_pos_as_xyz
1 x,y,z
_cell_length_a                   9.04348
_cell_length_b                   10.55529
_cell_length_c                   17.432315
_cell_angle_alpha                101.80701
_cell_angle_beta                 102.12601
_cell_angle_gamma                94.37001
loop_
_atom_site_label
_atom_site_type_symbol
_atom_site_fract_x
_atom_site_fract_y
_atom_site_fract_z
     1  C          0.83972860       0.23119120       0.40463700
     2  C          0.16027140       0.76880880       0.59536300
     3  C          0.72317850       0.14274120       0.41113800
     4  C          0.27682150       0.85725880       0.58886200
     5  H          0.67970000       0.07070000       0.36750000
     6  H          0.32030000       0.92930000       0.63250000
     7  C          0.67041850       0.15991130       0.48160800
     8  C          0.32958150       0.84008870       0.51839200
     9  H          0.59120000       0.09900000       0.48580000
    10  H          0.40880000       0.90100000       0.51420000
    11  C          0.73189860       0.26482120       0.54592800
    12  C          0.26810140       0.73517880       0.45407200
    13  C          0.84880850       0.35297120       0.53908800
    14  C          0.15119150       0.64702880       0.46091200
    15  H          0.89240000       0.42510000       0.58260000
    16  H          0.10760000       0.57490000       0.41740000
    17  C          0.90151850       0.33581120       0.46915800
    18  C          0.09848150       0.66418880       0.53084200
    19  H         -0.01880000       0.39650000       0.46520000
    20  H          0.01880000       0.60350000       0.53480000
    21  C          0.90327860       0.22021120       0.33109700
    22  C          0.09672140       0.77978880       0.66890300
    23  N          0.87264860       0.10855110       0.27619700
    24  N          0.12735140       0.89144890       0.72380300
    25  H          0.91708300       0.10761500       0.23381000
    26  H          0.08291700       0.89238500       0.76619000
    27  H          0.81868200       0.03961500       0.27979000
    28  H          0.18131800       0.96038500       0.72021000
    29  O         -0.01545110       0.31588900       0.32349500
    30  O          0.01545110       0.68411100       0.67650500
    31  C          0.67205850       0.28523130       0.62194800
    32  C          0.32794150       0.71476870       0.37805200
    33  H          0.64430000       0.37490000       0.63390000
    34  H          0.35570000       0.62510000       0.36610000
    35  H          0.57830000       0.22380000       0.61240000
    36  H          0.42170000       0.77620000       0.38760000
    37  N          0.78192880       0.26599100       0.69180600
    38  N          0.21807120       0.73400900       0.30819400
    39  N          0.80184870       0.14393100       0.70159600
    40  N          0.19815130       0.85606900       0.29840400
    41  C          0.90348850       0.16250130       0.77194800
    42  C          0.09651150       0.83749870       0.22805200
    43  H          0.94020000       0.09390000       0.79540000
    44  H          0.05980000       0.90610000       0.20460000
    45  C          0.94892850       0.29411130       0.80651800
    46  C          0.05107150       0.70588870       0.19348200
    47  H          0.02000000       0.33170000       0.85600000
    48  H         -0.02000000       0.66830000       0.14400000
    49  C          0.86830850       0.35815120       0.75337800
    50  C          0.13169150       0.64184880       0.24662200
    51  H          0.87280000       0.44990000       0.75910000
    52  H          0.12720000       0.55010000       0.24090000
    53  C          0.18203140       0.25038120       0.08514800
    54  C          0.81796860       0.74961880       0.91485200
    55  C          0.10818140       0.22296120       0.15002800
    56  C          0.89181860       0.77703880       0.84997200
    57  O          0.12829110       0.32376900       0.21180600
    58  O          0.87170890       0.67623100       0.78819400
    59  H          0.07551800       0.30921500       0.24811000
    60  H          0.92448200       0.69078500       0.75189000
    61  O          0.03610110       0.11798900       0.14578500
    62  O          0.96389890       0.88201100       0.85421500
    63  C          0.26324150       0.37151120       0.09275800
    64  C          0.73675850       0.62848880       0.90724200
    65  H          0.27380000       0.43770000       0.14020000
    66  H          0.72620000       0.56230000       0.85980000
    67  C          0.32887160       0.39591130       0.03126800
    68  C          0.67112840       0.60408870       0.96873200
    69  H          0.38460000       0.47850000       0.03670000
    70  H          0.61540000       0.52150000       0.96330000
    71  C          0.31294160       0.29941140       0.96184200
    72  C          0.68705840       0.70058860       0.03815800
    73  H          0.35740000       0.31610000       0.91960000
    74  H          0.64260000       0.68390000       0.08040000
    75  C          0.23237160       0.17865140       0.95398200
    76  C          0.76762840       0.82134860       0.04601800
    77  H          0.22210000       0.11260000       0.90650000
    78  H          0.77790000       0.88740000       0.09350000
    79  C          0.16659150       0.15410130       0.01545800
    80  C          0.83340850       0.84589870       0.98454200
    81  H          0.11100000       0.07140000       0.00990000
    82  H          0.88900000       0.92860000       0.99010000
    83  C          0.30622140       0.25279120       0.44430700
    84  C          0.69377860       0.74720880       0.55569300
    85  C          0.23524150       0.14561130       0.46408800
    86  C          0.76475850       0.85438870       0.53591200
    87  H          0.21550000       0.06300000       0.42730000
    88  H          0.78450000       0.93700000       0.57270000
    89  C          0.19365150       0.15964130       0.53715800
    90  C          0.80634850       0.84035870       0.46284200
    91  H          0.14580000       0.08630000       0.55030000
    92  H          0.85420000       0.91370000       0.44970000
    93  C          0.22130140       0.28006130       0.59154800
    94  C          0.77869860       0.71993870       0.40845200
    95  C          0.28916140       0.38740120       0.57103800
    96  C          0.71083860       0.61259880       0.42896200
    97  H          0.30660000       0.47040000       0.60730000
    98  H          0.69340000       0.52960000       0.39270000
    99  C          0.33142140       0.37383120       0.49811800
   100  C          0.66857860       0.62616880       0.50188200
   101  H          0.37790000       0.44760000       0.48470000
   102  H          0.62210000       0.55240000       0.51530000
   103  C          0.36076140       0.24375120       0.36826800
   104  C          0.63923860       0.75624880       0.63173200
   105  N          0.33724140       0.12917110       0.31630700
   106  N          0.66275860       0.87082890       0.68369300
   107  H          0.37781700       0.12641400       0.27211000
   108  H          0.62218300       0.87358600       0.72789000
   109  H          0.29881800       0.06071500       0.32569000
   110  H          0.70118200       0.93928500       0.67431000
   111  O          0.42849110       0.34274900       0.35603500
   112  O          0.57150890       0.65725100       0.64396500
   113  C          0.18287150       0.29342130       0.67262800
   114  C          0.81712850       0.70657870       0.32737200
   115  H          0.15860000       0.38290000       0.69100000
   116  H          0.84140000       0.61710000       0.30900000
   117  H          0.09170000       0.23150000       0.66780000
   118  H          0.90830000       0.76850000       0.33220000
   119  N          0.31022120       0.26713100       0.73192600
   120  N          0.68977880       0.73286900       0.26807400
   121  N          0.32057130       0.14391100       0.74195700
   122  N          0.67942870       0.85608900       0.25804300
   123  C          0.45832160       0.15033130       0.78953800
   124  C          0.54167840       0.84966870       0.21046200
   125  H          0.49800000       0.07820000       0.80780000
   126  H          0.50200000       0.92180000       0.19220000
   127  C          0.53713150       0.27558130       0.80937800
   128  C          0.46286850       0.72441870       0.19062200
   129  H          0.63670000       0.30450000       0.84230000
   130  H          0.36330000       0.69550000       0.15770000
   131  C          0.43905150       0.34796120       0.77084700
   132  C          0.56094850       0.65203880       0.22915300
   133  H          0.45820000       0.43790000       0.77140000
   134  H          0.54180000       0.56210000       0.22860000
   135  C          0.64969150       0.25227120       0.12688700
   136  C          0.35030850       0.74772880       0.87311300
   137  C          0.56311150       0.24113120       0.18952800
   138  C          0.43688850       0.75886880       0.81047200
   139  O          0.58394110       0.34601900       0.24865600
   140  O          0.41605890       0.65398100       0.75134400
   141  H          0.52381800       0.33691500       0.28251000
   142  H          0.47618200       0.66308500       0.71749000
   143  O          0.47885110       0.14259900       0.18562600
   144  O          0.52114890       0.85740100       0.81437400
   145  C          0.74911150       0.36266130       0.13211800
   146  C          0.25088850       0.63733870       0.86788200
   147  H          0.76600000       0.43370000       0.17760000
   148  H          0.23400000       0.56630000       0.82240000
   149  C          0.82336160       0.36846130       0.07070900
   150  C          0.17663840       0.63153870       0.92929100
   151  H          0.89160000       0.44360000       0.07430000
   152  H          0.10840000       0.55640000       0.92570000
   153  C          0.79871160       0.26541140       0.00416800
   154  C          0.20128840       0.73458860      -0.00416800
   155  H          0.84950000       0.27030000       0.96220000
   156  H          0.15050000       0.72970000       0.03780000
   157  C          0.70016160       0.15515140      -0.00129800
   158  C          0.29983840       0.84484860       0.00129800
   159  H          0.68290000       0.08450000       0.95300000
   160  H          0.31710000       0.91550000       0.04700000
   161  C          0.62677160       0.14859130       0.06047800
   162  C          0.37322840       0.85140870       0.93952200
   163  H          0.56030000       0.07250000       0.05720000
   164  H          0.43970000       0.92750000       0.94280000
