data_OCOMUO
_symmetry_space_group_name_H-M    'P1'
_symmetry_Int_Tables_number       1
loop_
_symmetry_equiv_pos_site_id
_symmetry_equiv_pos_as_xyz
1 x,y,z
_cell_length_a                   4.29544
_cell_length_b                   8.12908
_cell_length_c                   13.647414
_cell_angle_alpha                100.7328
_cell_angle_beta                 98.8238
_cell_angle_gamma                103.7928
loop_
_atom_site_label
_atom_site_type_symbol
_atom_site_fract_x
_atom_site_fract_y
_atom_site_fract_z
     1  I          0.38185500       0.70096700       0.30751515
     2  I          0.61814500       0.29903300       0.69248485
     3  F          0.66541000       0.70216000       0.54052000
     4  F          0.33459000       0.29784000       0.45948000
     5  F          0.85462000       0.07264000       0.31620190
     6  F          0.14538000       0.92736000       0.68379810
     7  C          0.74272000       0.88006000       0.42362000
     8  C          0.25728000       0.11994000       0.57638000
     9  C          0.82931000       0.84806000       0.51873000
    10  C          0.17069000       0.15194000       0.48127000
    11  C          0.92221000       0.03424000       0.40752000
    12  C          0.07779000       0.96576000       0.59248000
    13  O          0.03984000       0.50837000       0.86778000
    14  O         -0.03984000       0.49163000       0.13222000
    15  N          0.30114000       0.64017000       0.90266810
    16  N          0.69886000       0.35983000       0.09733190
    17  C          0.43952000       0.72976000       0.83888000
    18  C          0.56048000       0.27024000       0.16112000
    19  H          0.35189000       0.69640000       0.77360000
    20  H          0.64811000       0.30360000       0.22640000
    21  C          0.71143000       0.87006000       0.87598000
    22  C          0.28857000       0.12994000       0.12402000
    23  H          0.80589000       0.93540000       0.83070000
    24  H          0.19411000       0.06460000       0.16930000
    25  C          0.85524000       0.92387000       0.97896810
    26  C          0.14476000       0.07613000       0.02103190
    27  C          0.70583000       0.82597000       0.04222000
    28  C          0.29417000       0.17403000       0.95778000
    29  H          0.80190000       0.85950000       0.10930000
    30  H          0.19810000       0.14050000       0.89070000
    31  C          0.43163000       0.68726000       0.00402000
    32  C          0.56837000       0.31274000      -0.00402000
    33  H          0.31990000       0.63250000       0.04530000
    34  H          0.68010000       0.36750000       0.95470000
