data_ODEHIS
_symmetry_space_group_name_H-M    'P1'
_symmetry_Int_Tables_number       1
loop_
_symmetry_equiv_pos_site_id
_symmetry_equiv_pos_as_xyz
1 x,y,z
_cell_length_a                   7.075501
_cell_length_b                   10.34352
_cell_length_c                   10.37132
_cell_angle_alpha                65.2922
_cell_angle_beta                 76.32001
_cell_angle_gamma                78.2022
loop_
_atom_site_label
_atom_site_type_symbol
_atom_site_fract_x
_atom_site_fract_y
_atom_site_fract_z
     1  Br         0.29926400       0.02533300       0.73475200
     2  Br         0.70073600       0.97466700       0.26524800
     3  Br         0.80062500       0.23136300       0.93170300
     4  Br         0.19937500       0.76863700       0.06829700
     5  C          0.41074000       0.01012000       0.89052000
     6  C          0.58926000       0.98988000       0.10948000
     7  C          0.62624000       0.09772000       0.97362000
     8  C          0.37376000       0.90228000       0.02638000
     9  C          0.53614000       0.10772000       0.86442000
    10  C          0.46386000       0.89228000       0.13558000
    11  H          0.56023100       0.18006300       0.77345000
    12  H          0.43976900       0.81993700       0.22655000
    13  N          0.72654000       0.31222000       0.53432000
    14  N          0.27346000       0.68778000       0.46568000
    15  N          0.80383000       0.61362000       0.10512000
    16  N          0.19617000       0.38638000       0.89488000
    17  N          0.74043000       0.58522000       0.01972000
    18  N          0.25957000       0.41478000       0.98028000
    19  N          0.80863000       0.87712000       0.58508000
    20  N          0.19137000       0.12288000       0.41492000
    21  C          0.71394000       0.27593000       0.42753000
    22  C          0.28606000       0.72407000       0.57247000
    23  H          0.68831600       0.18332900       0.45088500
    24  H          0.31168400       0.81667100       0.54911500
    25  C          0.73684000       0.36863000       0.28353000
    26  C          0.26316000       0.63137000       0.71647000
    27  H          0.72764600       0.33907900       0.21214000
    28  H          0.27235400       0.66092100       0.78786000
    29  C          0.77374000       0.50653000       0.24972000
    30  C          0.22626000       0.49347000       0.75028000
    31  C          0.79044000       0.54583000       0.35793000
    32  C          0.20956000       0.45417000       0.64207000
    33  H          0.81874700       0.63703300       0.33744300
    34  H          0.18125300       0.36296700       0.66255700
    35  C          0.76355000       0.44463000       0.49893000
    36  C          0.23645000       0.55537000       0.50107000
    37  H          0.77182400       0.47137400       0.57233800
    38  H          0.22817600       0.52862600       0.42766200
    39  C          0.76884000       0.69012000       0.87428000
    40  C          0.23116000       0.30988000       0.12572000
    41  C          0.71994000       0.65413000       0.77297000
    42  C          0.28006000       0.34587000       0.22703000
    43  H          0.67200600       0.56762400       0.79972500
    44  H          0.32799400       0.43237600       0.20027500
    45  C          0.74414000       0.75043000       0.63067000
    46  C          0.25586000       0.24957000       0.36933000
    47  H          0.71347300       0.72493200       0.56268900
    48  H          0.28652700       0.27506800       0.43731100
    49  C          0.85404000       0.90993000       0.68617000
    50  C          0.14596000       0.09007000       0.31383000
    51  H          0.89932100      -0.00222300       0.65719500
    52  H          0.10067900       0.00222300       0.34280500
    53  C          0.83714000       0.82013000       0.83097000
    54  C          0.16286000       0.17987000       0.16903000
    55  H          0.87097300       0.84686600       0.89691000
    56  H          0.12902700       0.15313400       0.10309000
