data_ODEJIR
_symmetry_space_group_name_H-M    'P1'
_symmetry_Int_Tables_number       1
loop_
_symmetry_equiv_pos_site_id
_symmetry_equiv_pos_as_xyz
1 x,y,z
_cell_length_a                   10.502615
_cell_length_b                   11.492617
_cell_length_c                   13.132619
_cell_angle_alpha                97.1733
_cell_angle_beta                 98.1572
_cell_angle_gamma                104.1252
loop_
_atom_site_label
_atom_site_type_symbol
_atom_site_fract_x
_atom_site_fract_y
_atom_site_fract_z
     1  Br         0.03005200       0.45464200       0.15187319
     2  Br         0.96994800       0.54535800       0.84812681
     3  S          0.53997600       0.66369500       0.59935500
     4  S          0.46002400       0.33630500       0.40064500
     5  O          0.94062850       0.69175150       0.38110120
     6  O          0.05937150       0.30824850       0.61889880
     7  H         -0.01690000       0.75620000       0.36760000
     8  H          0.01690000       0.24380000       0.63240000
     9  O          0.75130840       0.52948150       0.18904130
    10  O          0.24869160       0.47051850       0.81095870
    11  C          0.52653000       0.54592000       0.67903190
    12  C          0.47347000       0.45408000       0.32096810
    13  H          0.61040000       0.55750000       0.72420000
    14  H          0.38960000       0.44250000       0.27580000
    15  H          0.50330000       0.46790000       0.63500000
    16  H          0.49670000       0.53210000       0.36500000
    17  H          0.45860000       0.54970000       0.72020000
    18  H          0.54140000       0.45030000       0.27980000
    19  C          0.38012000       0.62999190       0.52182170
    20  C          0.61988000       0.37000810       0.47817830
    21  C          0.36112000       0.71288190       0.45518170
    22  C          0.63888000       0.28711810       0.54481830
    23  H          0.43220000       0.77820000       0.45210000
    24  H          0.56780000       0.22180000       0.54790000
    25  C          0.23842000       0.69892190       0.39401170
    26  C          0.76158000       0.30107810       0.60598830
    27  H          0.22740000       0.75580000       0.35130000
    28  H          0.77260000       0.24420000       0.64870000
    29  C          0.12972000       0.59981190       0.39542170
    30  C          0.87028000       0.40018810       0.60457830
    31  C          0.15172000       0.51432000       0.45789170
    32  C          0.84828000       0.48568000       0.54210830
    33  H          0.08240000       0.44590000       0.45700000
    34  H          0.91760000       0.55410000       0.54300000
    35  C          0.27422000       0.52842190       0.52135170
    36  C          0.72578000       0.47157810       0.47864830
    37  H          0.28560000       0.47080000       0.56320000
    38  H          0.71440000       0.52920000       0.43680000
    39  C         -0.00792000       0.59142000       0.33701170
    40  C          0.00792000       0.40858000       0.66298830
    41  H          0.93170000       0.51390000       0.34330000
    42  H          0.06830000       0.48610000       0.65670000
    43  C         -0.01202000       0.59912000       0.22305180
    44  C          0.01202000       0.40088000       0.77694820
    45  H          0.05290000       0.67320000       0.21510000
    46  H          0.94710000       0.32680000       0.78490000
    47  C          0.84998000       0.59635190       0.16709170
    48  C          0.15002000       0.40364810       0.83290830
    49  C          0.83758000       0.67150190       0.08346170
    50  C          0.16242000       0.32849810       0.91653830
    51  C          0.94698000       0.74822000       0.05471180
    52  C          0.05302000       0.25178000       0.94528820
    53  H          0.03290000       0.75210000       0.08720000
    54  H          0.96710000       0.24790000       0.91280000
    55  C          0.92868000       0.81872000       0.97813820
    56  C          0.07132000       0.18128000       0.02186180
    57  H          0.00260000       0.86870000       0.95950000
    58  H         -0.00260000       0.13130000       0.04050000
    59  C          0.80008000       0.81542000       0.92863810
    60  C          0.19992000       0.18458000       0.07136190
    61  C          0.69158000       0.73682000       0.95707810
    62  C          0.30842000       0.26318000       0.04292190
    63  H          0.60550000       0.73170000       0.92420000
    64  H          0.39450000       0.26830000       0.07580000
    65  C          0.71008000       0.66652000       0.03330180
    66  C          0.28992000       0.33348000       0.96669820
    67  H          0.63640000       0.61530000       0.05120000
    68  H          0.36360000       0.38470000       0.94880000
    69  C          0.77977000       0.89513000       0.84918000
    70  C          0.22023000       0.10487000       0.15082000
    71  H          0.71900000       0.94070000       0.86830000
    72  H          0.28100000       0.05930000       0.13170000
    73  H          0.74360000       0.84550000       0.78200000
    74  H          0.25640000       0.15450000       0.21800000
    75  H          0.86380000       0.95010000       0.84650000
    76  H          0.13620000       0.04990000       0.15350000
    77  S          0.67585600       0.21666600       0.87652500
    78  S          0.32414400       0.78333400       0.12347500
    79  O          0.05444160       0.90981140       0.32149130
    80  O          0.94555840       0.09018860       0.67850870
    81  C          0.66753000       0.36472000       0.93282000
    82  C          0.33247000       0.63528000       0.06718000
    83  H          0.74170000       0.39940000       0.98900000
    84  H          0.25830000       0.60060000       0.01100000
    85  H          0.58560000       0.35760000       0.95910000
    86  H          0.41440000       0.64240000       0.04090000
    87  H          0.67080000       0.41630000       0.88060000
    88  H          0.32920000       0.58370000       0.11940000
    89  C          0.54212000       0.16982000       0.77004170
    90  C          0.45788000       0.83018000       0.22995830
    91  C          0.53172000       0.05912000       0.70693180
    92  C          0.46828000       0.94088000       0.29306820
    93  H          0.59390000       0.01550000       0.72240000
    94  H          0.40610000       0.98450000       0.27760000
    95  C          0.43032000       0.01453190       0.62234170
    96  C          0.56968000      -0.01453190       0.37765830
    97  H          0.42370000       0.94010000       0.58200000
    98  H          0.57630000       0.05990000       0.41800000
    99  C          0.33652000       0.07912190       0.59558170
   100  C          0.66348000       0.92087810       0.40441830
   101  C          0.34682000       0.18962000       0.65930170
   102  C          0.65318000       0.81038000       0.34069830
   103  H          0.28500000       0.23340000       0.64350000
   104  H          0.71500000       0.76660000       0.35650000
   105  C          0.44792000       0.23422000       0.74564170
   106  C          0.55208000       0.76578000       0.25435830
   107  H          0.45320000       0.30740000       0.78750000
   108  H          0.54680000       0.69260000       0.21250000
   109  C          0.23512000       0.02812000       0.50209170
   110  C          0.76488000       0.97188000       0.49790830
   111  H          0.23170000       0.94990000       0.47090000
   112  H          0.76830000       0.05010000       0.52910000
   113  C          0.14612000       0.07992000       0.45540170
   114  C          0.85388000       0.92008000       0.54459830
   115  H          0.14450000       0.15810000       0.48260000
   116  H          0.85550000       0.84190000       0.51740000
   117  C          0.05062000       0.01222000       0.36065170
   118  C          0.94938000      -0.01222000       0.63934830
   119  C          0.94758000       0.06744190       0.31192170
   120  C          0.05242000       0.93255810       0.68807830
   121  C          0.86568000       0.00602000       0.21805170
   122  C          0.13432000      -0.00602000       0.78194830
   123  H          0.87850000       0.93380000       0.18620000
   124  H          0.12150000       0.06620000       0.81380000
   125  C          0.76508000       0.05172000       0.17167180
   126  C          0.23492000       0.94828000       0.82832820
   127  H          0.71150000       0.01000000       0.10880000
   128  H          0.28850000      -0.01000000       0.89120000
   129  C          0.74348000       0.15862000       0.21776180
   130  C          0.25652000       0.84138000       0.78223820
   131  C          0.82468000       0.21972000       0.31233180
   132  C          0.17532000       0.78028000       0.68766820
   133  H          0.81060000       0.29100000       0.34460000
   134  H          0.18940000       0.70900000       0.65540000
   135  C          0.92618000       0.17545190       0.35881180
   136  C          0.07382000       0.82454810       0.64118820
   137  H          0.98010000       0.21770000       0.42130000
   138  H          0.01990000       0.78230000       0.57870000
   139  C          0.63108000       0.20702000       0.17042190
   140  C          0.36892000       0.79298000       0.82957810
   141  H          0.59520000       0.16390000       0.10080000
   142  H          0.40480000       0.83610000       0.89920000
   143  H          0.66450000       0.29210000       0.16850000
   144  H          0.33550000       0.70790000       0.83150000
   145  H          0.56220000       0.19580000       0.21200000
   146  H          0.43780000       0.80420000       0.78800000
