data_ODERUO
_symmetry_space_group_name_H-M    'P1'
_symmetry_Int_Tables_number       1
loop_
_symmetry_equiv_pos_site_id
_symmetry_equiv_pos_as_xyz
1 x,y,z
_cell_length_a                   14.935211
_cell_length_b                   7.53375
_cell_length_c                   20.873314
_cell_angle_alpha                90.0
_cell_angle_beta                 108.1798
_cell_angle_gamma                90.0
loop_
_atom_site_label
_atom_site_type_symbol
_atom_site_fract_x
_atom_site_fract_y
_atom_site_fract_z
     1  I          0.38826300       0.81676500       0.60848200
     2  I          0.11173700       0.31676500       0.89151800
     3  I          0.61173700       0.18323500       0.39151800
     4  I          0.88826300       0.68323500       0.10848200
     5  I          0.28341300       0.69154500       0.42914200
     6  I          0.21658700       0.19154500       0.07085800
     7  I          0.71658700       0.30845500       0.57085800
     8  I          0.78341300       0.80845500       0.92914200
     9  F          0.45413000       0.63465000       0.37417180
    10  F          0.04587000       0.13465000       0.12582820
    11  F          0.54587000       0.36535000       0.62582820
    12  F          0.95413000       0.86535000       0.87417180
    13  F          0.60393000       0.86685000       0.63032000
    14  F          0.89607000       0.36685000       0.86968000
    15  F          0.39607000       0.13315000       0.36968000
    16  F          0.10393000       0.63315000       0.13032000
    17  F          0.63983000       0.68685000       0.42572000
    18  F          0.86017000       0.18685000       0.07428000
    19  F          0.36017000       0.31315000       0.57428000
    20  F          0.13983000       0.81315000       0.92572000
    21  F          0.71453000       0.80505000       0.55462000
    22  F          0.78547000       0.30505000       0.94538000
    23  F          0.28547000       0.19495000       0.44538000
    24  F          0.21453000       0.69495000       0.05462000
    25  C          0.42984000       0.72437000       0.47623000
    26  C          0.07016000       0.22437000       0.02377000
    27  C          0.57016000       0.27563000       0.52377000
    28  C          0.92984000       0.77563000       0.97623000
    29  C          0.46734000       0.78097000       0.54193000
    30  C          0.03266000       0.28097000       0.95807000
    31  C          0.53266000       0.21903000       0.45807000
    32  C          0.96734000       0.71903000       0.04193000
    33  C          0.58485000       0.72097000       0.46504000
    34  C          0.91515000       0.22097000       0.03496000
    35  C          0.41515000       0.27903000       0.53496000
    36  C          0.08485000       0.77903000       0.96504000
    37  C          0.48925000       0.69407000       0.43843000
    38  C          0.01075000       0.19407000       0.06157000
    39  C          0.51075000       0.30593000       0.56157000
    40  C         -0.01075000       0.80593000       0.93843000
    41  C          0.56265000       0.80828000       0.56663000
    42  C          0.93735000       0.30828000       0.93337000
    43  C          0.43735000       0.19172000       0.43337000
    44  C          0.06265000       0.69172000       0.06663000
    45  C          0.62085000       0.77808000       0.52894000
    46  C          0.87915000       0.27808000       0.97106000
    47  C          0.37915000       0.22192000       0.47106000
    48  C          0.12085000       0.72192000       0.02894000
    49  Cl         0.27145120       0.85992000       0.71225800
    50  Cl         0.22854880       0.35992000       0.78774200
    51  Cl         0.72854880       0.14008000       0.28774200
    52  Cl         0.77145120       0.64008000       0.21225800
    53  Cl         0.44195120       0.16752000       0.13373800
    54  Cl         0.05804880       0.66752000       0.36626200
    55  Cl         0.55804880       0.83248000       0.86626200
    56  Cl         0.94195120       0.33248000       0.63373800
    57  Cl         0.39624140       0.52122000       0.02301100
    58  Cl         0.10375860       0.02122000       0.47698900
    59  Cl         0.60375860       0.47878000       0.97698900
    60  Cl         0.89624140       0.97878000       0.52301100
    61  N          0.32703000       0.82788000       0.86533000
    62  N          0.17297000       0.32788000       0.63467000
    63  N          0.67297000       0.17212000       0.13467000
    64  N          0.82703000       0.67212000       0.36533000
    65  H          0.30830000       0.81410000       0.82220000
    66  H          0.19170000       0.31410000       0.67780000
    67  H          0.69170000       0.18590000       0.17780000
    68  H          0.80830000       0.68590000       0.32220000
    69  C          0.37474000       0.70628000       0.97183000
    70  C          0.12526000       0.20628000       0.52817000
    71  C          0.62526000       0.29372000       0.02817000
    72  C          0.87474000       0.79372000       0.47183000
    73  C          0.34454000       0.68368000       0.90383000
    74  C          0.15546000       0.18368000       0.59617000
    75  C          0.65546000       0.31632000       0.09617000
    76  C          0.84454000       0.81632000       0.40383000
    77  H          0.33630000       0.57070000       0.88480000
    78  H          0.16370000       0.07070000       0.61520000
    79  H          0.66370000       0.42930000       0.11520000
    80  H          0.83630000       0.92930000       0.38480000
    81  C          0.38585000       0.87238000      -0.00097000
    82  C          0.11415000       0.37238000       0.50097000
    83  C          0.61415000       0.12762000       0.00097000
    84  C          0.88585000       0.62762000       0.49903000
    85  H          0.40650000       0.88720000       0.04550000
    86  H          0.09350000       0.38720000       0.45450000
    87  H          0.59350000       0.11280000       0.95450000
    88  H          0.90650000       0.61280000       0.54550000
    89  C          0.33695000      -0.00699000       0.88984000
    90  C          0.16305000       0.49301000       0.61016000
    91  C          0.66305000       0.00699000       0.11016000
    92  C          0.83695000       0.50699000       0.38984000
    93  H          0.32400000       0.08990000       0.86070000
    94  H          0.17600000       0.58990000       0.63930000
    95  H          0.67600000       0.91010000       0.13930000
    96  H          0.82400000       0.41010000       0.36070000
    97  C          0.36605000       0.01769000       0.95724000
    98  C          0.13395000       0.51769000       0.54276000
    99  C          0.63395000      -0.01769000       0.04276000
   100  C          0.86605000       0.48231000       0.45724000
   101  H          0.37260000       0.13170000       0.97510000
   102  H          0.12740000       0.63170000       0.52490000
   103  H          0.62740000       0.86830000       0.02490000
   104  H          0.87260000       0.36830000       0.47510000
   105  Cl         0.28462170       0.86853000       0.22540120
   106  Cl         0.21537830       0.36853000       0.27459880
   107  Cl         0.71537830       0.13147000       0.77459880
   108  Cl         0.78462170       0.63147000       0.72540120
   109  N          0.46235000       0.51187000       0.20573000
   110  N          0.03765000       0.01187000       0.29427000
   111  N          0.53765000       0.48813000       0.79427000
   112  N          0.96235000      -0.01187000       0.70573000
   113  H          0.45930000       0.40410000       0.19160000
   114  H          0.04070000       0.90410000       0.30840000
   115  H          0.54070000       0.59590000       0.80840000
   116  H          0.95930000       0.09590000       0.69160000
   117  C          0.38285000       0.59421000       0.20353000
   118  C          0.11715000       0.09421000       0.29647000
   119  C          0.61715000       0.40579000       0.79647000
   120  C          0.88285000       0.90579000       0.70353000
   121  H          0.32510000       0.53660000       0.18630000
   122  H          0.17490000       0.03660000       0.31370000
   123  H          0.67490000       0.46340000       0.81370000
   124  H          0.82510000       0.96340000       0.68630000
   125  C          0.38655000       0.76129000       0.22643000
   126  C          0.11345000       0.26129000       0.27357000
   127  C          0.61345000       0.23871000       0.77357000
   128  C          0.88655000       0.73871000       0.72643000
   129  C          0.47236000       0.84789000       0.24893000
   130  C          0.02764000       0.34789000       0.25107000
   131  C          0.52764000       0.15211000       0.75107000
   132  C          0.97236000       0.65211000       0.74893000
   133  H          0.47520000       0.96540000       0.26300000
   134  H          0.02480000       0.46540000       0.23700000
   135  H          0.52480000       0.03460000       0.73700000
   136  H          0.97520000       0.53460000       0.76300000
   137  C          0.54556000       0.58841100       0.22864000
   138  C          0.95444000       0.08841100       0.27136000
   139  C          0.45444000       0.41158900       0.77136000
   140  C          0.04556000       0.91158900       0.72864000
   141  H          0.59950000       0.52510000       0.22990000
   142  H          0.90050000       0.02510000       0.27010000
   143  H          0.40050000       0.47490000       0.77010000
   144  H          0.09950000       0.97490000       0.72990000
   145  C          0.55286000       0.75991100       0.25034000
   146  C          0.94714000       0.25991100       0.24966000
   147  C          0.44714000       0.24008900       0.74966000
   148  C          0.05286000       0.74008900       0.75034000
   149  H          0.61120000       0.81560000       0.26580000
   150  H          0.88880000       0.31560000       0.23420000
   151  H          0.38880000       0.18440000       0.73420000
   152  H          0.11120000       0.68440000       0.76580000
