data_ODEREY
_symmetry_space_group_name_H-M    'P1'
_symmetry_Int_Tables_number       1
loop_
_symmetry_equiv_pos_site_id
_symmetry_equiv_pos_as_xyz
1 x,y,z
_cell_length_a                   7.34992
_cell_length_b                   11.31153
_cell_length_c                   15.18024
_cell_angle_alpha                109.3902
_cell_angle_beta                 94.4102
_cell_angle_gamma                99.9432
loop_
_atom_site_label
_atom_site_type_symbol
_atom_site_fract_x
_atom_site_fract_y
_atom_site_fract_z
     1  I          0.21275300       0.38114200       0.64302200
     2  I          0.78724700       0.61885800       0.35697800
     3  I          0.23406400       0.73239200       0.71407200
     4  I          0.76593600       0.26760800       0.28592800
     5  F          0.24794000       0.28812000       0.42713190
     6  F          0.75206000       0.71188000       0.57286810
     7  F          0.28764000       0.40493000       0.30086190
     8  F          0.71236000       0.59507000       0.69913810
     9  F          0.30784000       0.66133000       0.35372000
    10  F          0.69216000       0.33867000       0.64628000
    11  F          0.28945000       0.79903000       0.53302000
    12  F          0.71055000       0.20097000       0.46698000
    13  C          0.24195000       0.48203000       0.54953000
    14  C          0.75805000       0.51797000       0.45047000
    15  C          0.25315000       0.61434000       0.57653000
    16  C          0.74685000       0.38566000       0.42347000
    17  C          0.25435000       0.41514000       0.45653000
    18  C          0.74565000       0.58486000       0.54347000
    19  C          0.27676000       0.47425000       0.39073000
    20  C          0.72324000       0.52575000       0.60927000
    21  C          0.27626000       0.67074000       0.50863000
    22  C          0.72374000       0.32926000       0.49137000
    23  C          0.28676000       0.60295000       0.41703000
    24  C          0.71324000       0.39705000       0.58297000
    25  Br         0.20648500       0.92421600       0.93173700
    26  Br         0.79351500       0.07578400       0.06826300
    27  Br         0.79277600       0.76804600       0.19800300
    28  Br         0.20722400       0.23195400       0.80199700
    29  Cl         0.09773000       0.56609150       0.12385110
    30  Cl         0.90227000       0.43390850       0.87614890
    31  N          0.23986000       0.23513000       0.04093000
    32  N          0.76014000       0.76487000       0.95907000
    33  H          0.18154200       0.15621200       0.01807600
    34  H          0.81845800       0.84378800       0.98192400
    35  C          0.22946000       0.45064000       0.09623000
    36  C          0.77054000       0.54936000       0.90377000
    37  C          0.42117000       0.48214000       0.11373000
    38  C          0.57883000       0.51786000       0.88627000
    39  H          0.48425100       0.56735800       0.13865600
    40  H          0.51574900       0.43264200       0.86134400
    41  C          0.14136000       0.32564000       0.05903000
    42  C          0.85864000       0.67436000       0.94097000
    43  H          0.01169100       0.30342000       0.04628500
    44  H         -0.01169100       0.69658000       0.95371500
    45  C          0.42317000       0.26095000       0.05653000
    46  C          0.57683000       0.73905000       0.94347000
    47  H          0.48804300       0.19484500       0.04234900
    48  H          0.51195700       0.80515500       0.95765100
    49  C          0.51666000       0.38515000       0.09354000
    50  C          0.48334000       0.61485000       0.90646000
    51  H          0.64639400       0.40415000       0.10508700
    52  H          0.35360600       0.59585000       0.89491300
    53  Cl         0.20233000       0.01042000       0.45365140
    54  Cl         0.79767000      -0.01042000       0.54634860
    55  N          0.46945000       0.92096000       0.23703000
    56  N          0.53055000       0.07904000       0.76297000
    57  H          0.56547700       0.88832700       0.22340200
    58  H          0.43452300       0.11167300       0.77659800
    59  C          0.16796000       0.02184000       0.27913000
    60  C          0.83204000       0.97816000       0.72087000
    61  H          0.06217000       0.05509400       0.29320400
    62  H          0.93783000       0.94490600       0.70679600
    63  C          0.41917000       0.93596000       0.32184000
    64  C          0.58083000       0.06404000       0.67816000
    65  H          0.48562500       0.91094100       0.36465000
    66  H          0.51437500       0.08905900       0.63535000
    67  C          0.26777000      -0.01124000       0.34454000
    68  C          0.73223000       0.01124000       0.65546000
    69  C          0.22566000       0.00535000       0.19323000
    70  C          0.77434000      -0.00535000       0.80677000
    71  H          0.16048400       0.02894300       0.14896600
    72  H          0.83951600       0.97105700       0.85103400
    73  C          0.37977000       0.95375000       0.17204000
    74  C          0.62023000       0.04625000       0.82796000
    75  H          0.42030000       0.94205400       0.11375800
    76  H          0.57970000       0.05794600       0.88624200
