data_ODIHIU
_symmetry_space_group_name_H-M    'P1'
_symmetry_Int_Tables_number       1
loop_
_symmetry_equiv_pos_site_id
_symmetry_equiv_pos_as_xyz
1 x,y,z
_cell_length_a                   7.72564
_cell_length_b                   19.379211
_cell_length_c                   15.24868
_cell_angle_alpha                90.0
_cell_angle_beta                 94.4042
_cell_angle_gamma                90.0
loop_
_atom_site_label
_atom_site_type_symbol
_atom_site_fract_x
_atom_site_fract_y
_atom_site_fract_z
     1  Cl         0.47142400       0.07472614       0.33873117
     2  Cl         0.52857600       0.57472614       0.16126883
     3  Cl         0.52857600       0.92527386       0.66126883
     4  Cl         0.47142400       0.42527386       0.83873117
     5  Cl         0.03903300       0.11535914       0.66944317
     6  Cl         0.96096700       0.61535914       0.83055683
     7  Cl         0.96096700       0.88464086       0.33055683
     8  Cl         0.03903300       0.38464086       0.16944317
     9  O          0.31761110       0.96820600       0.44873500
    10  O          0.68238890       0.46820600       0.05126500
    11  O          0.68238890       0.03179400       0.55126500
    12  O          0.31761110       0.53179400       0.94873500
    13  O          0.38228110       0.20697400       0.41873500
    14  O          0.61771890       0.70697400       0.08126500
    15  O          0.61771890       0.79302600       0.58126500
    16  O          0.38228110       0.29302600       0.91873500
    17  O          0.19289110       0.22175400       0.56024600
    18  O          0.80710890       0.72175400       0.93975400
    19  O          0.80710890       0.77824600       0.43975400
    20  O          0.19289110       0.27824600       0.06024600
    21  O          0.12838110       0.98190600       0.58734600
    22  O          0.87161890       0.48190600       0.91265400
    23  O          0.87161890       0.01809400       0.41265400
    24  O          0.12838110       0.51809400       0.08734600
    25  C          0.29092130       0.02762500       0.47153700
    26  C          0.70907870       0.52762500       0.02846300
    27  C          0.70907870       0.97237500       0.52846300
    28  C          0.29092130       0.47237500       0.97153700
    29  C          0.35319130       0.08757500       0.42792700
    30  C          0.64680870       0.58757500       0.07207300
    31  C          0.64680870       0.91242500       0.57207300
    32  C          0.35319130       0.41242500       0.92792700
    33  C          0.32313130       0.15273500       0.45676600
    34  C          0.67686870       0.65273500       0.04323400
    35  C          0.67686870       0.84726500       0.54323400
    36  C          0.32313130       0.34726500       0.95676600
    37  C          0.21969130       0.16321500       0.53620700
    38  C          0.78030870       0.66321500       0.96379300
    39  C          0.78030870       0.83678500       0.46379300
    40  C          0.21969130       0.33678500       0.03620700
    41  C          0.15645130       0.10223500       0.58002700
    42  C          0.84354870       0.60223500       0.91997300
    43  C          0.84354870       0.89776500       0.41997300
    44  C          0.15645130       0.39776500       0.08002700
    45  C          0.18762130       0.03833500       0.55030700
    46  C          0.81237870       0.53833500       0.94969300
    47  C          0.81237870       0.96166500       0.44969300
    48  C          0.18762130       0.46166500       0.05030700
    49  H          0.35030000       0.25621100       0.44031500
    50  H          0.64970000       0.75621100       0.05968500
    51  H          0.64970000       0.74378900       0.55968500
    52  H          0.35030000       0.24378900       0.94031500
    53  H          0.17220000       0.94561000       0.56681200
    54  H          0.82780000       0.44561000       0.93318800
    55  H          0.82780000       0.05439000       0.43318800
    56  H          0.17220000       0.55439000       0.06681200
    57  Cl         0.03936400       0.73721015       0.66318219
    58  Cl         0.96063600       0.23721015       0.83681781
    59  Cl         0.96063600       0.26278985       0.33681781
    60  Cl         0.03936400       0.76278985       0.16318219
    61  Cl         0.43434400       0.69613515       0.32024619
    62  Cl         0.56565600       0.19613515       0.17975381
    63  Cl         0.56565600       0.30386485       0.67975381
    64  Cl         0.43434400       0.80386485       0.82024619
    65  O          0.17091110       0.84382400       0.54524600
    66  O          0.82908890       0.34382400       0.95475400
    67  O          0.82908890       0.15617600       0.45475400
    68  O          0.17091110       0.65617600       0.04524600
    69  O          0.12580120       0.60462400       0.58253500
    70  O          0.87419880       0.10462400       0.91746500
    71  O          0.87419880       0.39537600       0.41746500
    72  O          0.12580120       0.89537600       0.08253500
    73  O          0.29328120       0.59007400       0.43419600
    74  O          0.70671880       0.09007400       0.06580400
    75  O          0.70671880       0.40992600       0.56580400
    76  O          0.29328120       0.90992600       0.93419600
    77  O          0.35646110       0.82973400       0.40553600
    78  O          0.64353890       0.32973400       0.09446400
    79  O          0.64353890       0.17026600       0.59446400
    80  O          0.35646110       0.67026600       0.90553600
    81  C          0.20045130       0.78418500       0.52370700
    82  C          0.79954870       0.28418500       0.97629300
    83  C          0.79954870       0.21581500       0.47629300
    84  C          0.20045130       0.71581500       0.02370700
    85  C          0.14501140       0.72414500       0.56984700
    86  C          0.85498860       0.22414500       0.93015300
    87  C          0.85498860       0.27585500       0.43015300
    88  C          0.14501140       0.77585500       0.06984700
    89  C          0.17536140       0.65934500       0.54141700
    90  C          0.82463860       0.15934500       0.95858300
    91  C          0.82463860       0.34065500       0.45858300
    92  C          0.17536140       0.84065500       0.04141700
    93  C          0.26969140       0.64856500       0.45899700
    94  C          0.73030860       0.14856500       0.04100300
    95  C          0.73030860       0.35143500       0.54100300
    96  C          0.26969140       0.85143500       0.95899700
    97  C          0.32711130       0.70957500       0.41302700
    98  C          0.67288870       0.20957500       0.08697300
    99  C          0.67288870       0.29042500       0.58697300
   100  C          0.32711130       0.79042500       0.91302700
   101  C          0.29929130       0.77344500       0.44357700
   102  C          0.70070870       0.27344500       0.05642300
   103  C          0.70070870       0.22655500       0.55642300
   104  C          0.29929130       0.72655500       0.94357700
   105  H          0.16130000       0.55961100       0.55961300
   106  H          0.83870000       0.05961100       0.94038700
   107  H          0.83870000       0.44038900       0.44038700
   108  H          0.16130000       0.94038900       0.05961300
   109  H          0.31120000       0.86519000       0.42741100
   110  H          0.68880000       0.36519000       0.07258900
   111  H          0.68880000       0.13481000       0.57258900
   112  H          0.31120000       0.63481000       0.92741100
   113  O          0.33325120       0.32916400       0.45643500
   114  O          0.66674880       0.82916400       0.04356500
   115  O          0.66674880       0.67083600       0.54356500
   116  O          0.33325120       0.17083600       0.95643500
   117  N          0.36175140       0.43510500       0.39621600
   118  N          0.63824860       0.93510500       0.10378400
   119  N          0.63824860       0.56489500       0.60378400
   120  N          0.36175140       0.06489500       0.89621600
   121  C          0.37277140       0.36749500       0.39448700
   122  C          0.62722860       0.86749500       0.10551300
   123  C          0.62722860       0.63250500       0.60551300
   124  C          0.37277140       0.13250500       0.89448700
   125  C          0.43783150       0.34400600       0.30898700
   126  C          0.56216850       0.84400600       0.19101300
   127  C          0.56216850       0.65599400       0.69101300
   128  C          0.43783150       0.15599400       0.80898700
   129  H          0.34330000       0.32290000       0.27050000
   130  H          0.65670000       0.82290000       0.22950000
   131  H          0.65670000       0.67710000       0.72950000
   132  H          0.34330000       0.17710000       0.77050000
   133  H          0.53320000       0.31010000       0.31920000
   134  H          0.46680000       0.81010000       0.18080000
   135  H          0.46680000       0.68990000       0.68080000
   136  H          0.53320000       0.18990000       0.81920000
   137  C          0.50285160       0.41064600       0.26846800
   138  C          0.49714840       0.91064600       0.23153200
   139  C          0.49714840       0.58935400       0.73153200
   140  C          0.50285160       0.08935400       0.76846800
   141  H          0.63080000       0.41410000       0.27750000
   142  H          0.36920000       0.91410000       0.22250000
   143  H          0.36920000       0.58590000       0.72250000
   144  H          0.63080000       0.08590000       0.77750000
   145  H          0.46840000       0.41260000       0.20460000
   146  H          0.53160000       0.91260000       0.29540000
   147  H          0.53160000       0.58740000       0.79540000
   148  H          0.46840000       0.08740000       0.70460000
   149  C          0.41537150       0.46817600       0.31736700
   150  C          0.58462850       0.96817600       0.18263300
   151  C          0.58462850       0.53182400       0.68263300
   152  C          0.41537150       0.03182400       0.81736700
   153  H          0.49780000       0.50620000       0.33240000
   154  H          0.50220000       0.00620000       0.16760000
   155  H          0.50220000       0.49380000       0.66760000
   156  H          0.49780000      -0.00620000       0.83240000
   157  H          0.31390000       0.48680000       0.28130000
   158  H          0.68610000       0.98680000       0.21870000
   159  H          0.68610000       0.51320000       0.71870000
   160  H          0.31390000       0.01320000       0.78130000
   161  H          0.31891900       0.45638000       0.43991000
   162  H          0.68108100       0.95638000       0.06009000
   163  H          0.68108100       0.54362000       0.56009000
   164  H          0.31891900       0.04362000       0.93991000
   165  O          0.19689110       0.48186400       0.55062500
   166  O          0.80310890       0.98186400       0.94937500
   167  O          0.80310890       0.51813600       0.44937500
   168  O          0.19689110       0.01813600       0.05062500
   169  N          0.15944130       0.37558500       0.60968600
   170  N          0.84055870       0.87558500       0.89031400
   171  N          0.84055870       0.62441500       0.39031400
   172  N          0.15944130       0.12441500       0.10968600
   173  C          0.14719140       0.44354500       0.61008700
   174  C          0.85280860       0.94354500       0.88991300
   175  C          0.85280860       0.55645500       0.38991300
   176  C          0.14719140       0.05645500       0.11008700
   177  C          0.06943150       0.46823600       0.69205700
   178  C          0.93056850       0.96823600       0.80794300
   179  C          0.93056850       0.53176400       0.30794300
   180  C          0.06943150       0.03176400       0.19205700
   181  H          0.96920000       0.49900000       0.67740000
   182  H          0.03080000      -0.00100000       0.82260000
   183  H          0.03080000       0.50100000       0.32260000
   184  H          0.96920000       0.00100000       0.17740000
   185  H          0.15650000       0.49320000       0.73120000
   186  H          0.84350000      -0.00680000       0.76880000
   187  H          0.84350000       0.50680000       0.26880000
   188  H          0.15650000       0.00680000       0.23120000
   189  C          0.01142150       0.40086600       0.73566700
   190  C         -0.01142150       0.90086600       0.76433300
   191  C         -0.01142150       0.59913400       0.26433300
   192  C          0.01142150       0.09913400       0.23566700
   193  H          0.04650000       0.40100000       0.79950000
   194  H          0.95350000       0.90100000       0.70050000
   195  H          0.95350000       0.59900000       0.20050000
   196  H          0.04650000       0.09900000       0.29950000
   197  H          0.88380000       0.39530000       0.72720000
   198  H          0.11620000       0.89530000       0.77280000
   199  H          0.11620000       0.60470000       0.27280000
   200  H          0.88380000       0.10470000       0.22720000
   201  C          0.10378150       0.34266500       0.68915700
   202  C          0.89621850       0.84266500       0.81084300
   203  C          0.89621850       0.65733500       0.31084300
   204  C          0.10378150       0.15733500       0.18915700
   205  H          0.20470000       0.32520000       0.72660000
   206  H          0.79530000       0.82520000       0.77340000
   207  H          0.79530000       0.67480000       0.27340000
   208  H          0.20470000       0.17480000       0.22660000
   209  H          0.02340000       0.30390000       0.67410000
   210  H          0.97660000       0.80390000       0.82590000
   211  H          0.97660000       0.69610000       0.32590000
   212  H          0.02340000       0.19610000       0.17410000
   213  H          0.20741900       0.35478000       0.56991000
   214  H          0.79258100       0.85478000       0.93009000
   215  H          0.79258100       0.64522000       0.43009000
   216  H          0.20741900       0.14522000       0.06991000
