data_ODIQIE
_symmetry_space_group_name_H-M    'P1'
_symmetry_Int_Tables_number       1
loop_
_symmetry_equiv_pos_site_id
_symmetry_equiv_pos_as_xyz
1 x,y,z
_cell_length_a                   7.29685
_cell_length_b                   15.206812
_cell_length_c                   19.364615
_cell_angle_alpha                110.7837
_cell_angle_beta                 91.7016
_cell_angle_gamma                100.9996
loop_
_atom_site_label
_atom_site_type_symbol
_atom_site_fract_x
_atom_site_fract_y
_atom_site_fract_z
     1  I          0.07873300       0.30413200       0.61404200
     2  I          0.92126700       0.69586800       0.38595800
     3  I          0.02779300       0.71278200       0.80460200
     4  I          0.97220700       0.28721800       0.19539800
     5  F          0.95387000       0.28444130       0.76358120
     6  F          0.04613000       0.71555870       0.23641880
     7  F          0.88227000       0.40995160       0.89140120
     8  F          0.11773000       0.59004840       0.10859880
     9  F          0.91187000       0.59560150       0.91070120
    10  F          0.08813000       0.40439850       0.08929880
    11  F          0.09283000       0.53247140       0.67004110
    12  F          0.90717000       0.46752860       0.32995890
    13  C          0.02024000       0.40492000       0.71209160
    14  C         -0.02024000       0.59508000       0.28790840
    15  C          0.96726000       0.37692000       0.77031190
    16  C          0.03274000       0.62308000       0.22968810
    17  C          0.92985000       0.44073000       0.83602000
    18  C          0.07015000       0.55927000       0.16398000
    19  C          0.94716000       0.53512000       0.84562180
    20  C          0.05284000       0.46488000       0.15437820
    21  C          0.00154000       0.56812000       0.78965180
    22  C         -0.00154000       0.43188000       0.21034820
    23  C          0.03574000       0.50122000       0.72462170
    24  C          0.96426000       0.49878000       0.27537830
    25  I          0.63165300       0.23158200       0.39052200
    26  I          0.36834700       0.76841800       0.60947800
    27  I          0.55067300       0.79909800       0.23565200
    28  I          0.44932700       0.20090200       0.76434800
    29  F          0.46883000       0.19144150       0.22486130
    30  F          0.53117000       0.80855850       0.77513870
    31  F          0.38633000       0.03214180       0.10129130
    32  F          0.61367000       0.96785820       0.89870870
    33  F          0.42013000       0.86173840       0.10591130
    34  F          0.57987000       0.13826160       0.89408870
    35  F          0.64353000       0.01099140       0.35877110
    36  F          0.35647000      -0.01099140       0.64122890
    37  C          0.56094000       0.10562000       0.29549190
    38  C          0.43906000       0.89438000       0.70450810
    39  C          0.49335000       0.10762000       0.22872000
    40  C          0.50665000       0.89238000       0.77128000
    41  C          0.44855000       0.02683000       0.16522000
    42  C          0.55145000       0.97317000       0.83478000
    43  C          0.46755000       0.94028000       0.16792000
    44  C          0.53245000       0.05972000       0.83208000
    45  C          0.53044000       0.93258000       0.23342000
    46  C          0.46956000       0.06742000       0.76658000
    47  C          0.57744000       0.01632000       0.29488180
    48  C          0.42256000       0.98368000       0.70511820
    49  O          0.95176000       0.08818160       0.19566140
    50  O          0.04824000       0.91181840       0.80433860
    51  H         -0.01124100       0.08905600       0.23635700
    52  H          0.01124100       0.91094400       0.76364300
    53  N          0.06273000       0.02155180       0.29231140
    54  N          0.93727000       0.97844820       0.70768860
    55  N          0.16824000       0.14922000       0.49208170
    56  N          0.83176000       0.85078000       0.50791830
    57  C         -0.02254000       0.92408000       0.16387170
    58  C          0.02254000       0.07592000       0.83612830
    59  C          0.95435000       0.83328000       0.10892000
    60  C          0.04565000       0.16672000       0.89108000
    61  H         -0.01545800       0.78324400       0.12072400
    62  H          0.01545800       0.21675600       0.87927600
    63  C          0.88774000       0.81637000       0.03732000
    64  C          0.11226000       0.18363000       0.96268000
    65  H          0.87390000       0.75550200       0.00066500
    66  H          0.12610000       0.24449800      -0.00066500
    67  C          0.84184000       0.89007000       0.02022000
    68  C          0.15816000       0.10993000       0.97978000
    69  H          0.79485500       0.87820900       0.97178900
    70  H          0.20514500       0.12179100       0.02821100
    71  C          0.86345000       0.98047000       0.07242000
    72  C          0.13655000       0.01953000       0.92758000
    73  H          0.83263600       0.02957600       0.05945200
    74  H          0.16736400       0.97042400       0.94054800
    75  C          0.93166000      -0.00112000       0.14491190
    76  C          0.06834000       0.00112000       0.85508810
    77  C          0.04204000       0.93938000       0.23979180
    78  C          0.95796000       0.06062000       0.76020820
    79  H          0.06899400       0.88798400       0.25048600
    80  H          0.93100600       0.11201600       0.74951400
    81  C          0.12374000       0.03592000       0.36654180
    82  C          0.87626000       0.96408000       0.63345820
    83  C          0.19305000       0.97078000       0.38982190
    84  C          0.80695000       0.02922000       0.61017810
    85  H          0.20176500       0.91094900       0.35586200
    86  H          0.79823500       0.08905100       0.64413800
    87  C          0.24805000      -0.00333000       0.46382000
    88  C          0.75195000       0.00333000       0.53618000
    89  H          0.29529600       0.95448000       0.48070400
    90  H          0.70470400       0.04552000       0.51929600
    91  C          0.23315000       0.08473000       0.51262000
    92  C          0.76685000       0.91527000       0.48738000
    93  H          0.27002100       0.10066200       0.56273500
    94  H          0.72997900       0.89933800       0.43726500
    95  C          0.11485000       0.12292000       0.41992000
    96  C          0.88515000       0.87708000       0.58008000
    97  H          0.06821300       0.16652000       0.40457500
    98  H          0.93178700       0.83348000       0.59542500
    99  O          0.45564000       0.39898170       0.77737140
   100  O          0.54436000       0.60101830       0.22262860
   101  H          0.49130500       0.41063300       0.74115800
   102  H          0.50869500       0.58936700       0.25884200
   103  N          0.56113000       0.50030180       0.69912140
   104  N          0.43887000       0.49969820       0.30087860
   105  N          0.69914000       0.40992000       0.51260170
   106  N          0.30086000       0.59008000       0.48739830
   107  C          0.47994000       0.57032000       0.82213180
   108  C          0.52006000       0.42968000       0.17786820
   109  C          0.46285000       0.65273000       0.87952000
   110  C          0.53715000       0.34727000       0.12048000
   111  H          0.48883400       0.71143900       0.87303000
   112  H          0.51116600       0.28856100       0.12697000
   113  C          0.40786000       0.64954000       0.94622000
   114  C          0.59214000       0.35046000       0.05378000
   115  H          0.39797700       0.70559200       0.98477800
   116  H          0.60202300       0.29440800       0.01522200
   117  C          0.36806000       0.56264000       0.95492000
   118  C          0.63194000       0.43736000       0.04508000
   119  H          0.32914700       0.56021600      -0.00033400
   120  H          0.67085300       0.43978400       0.00033400
   121  C          0.38405000       0.47834000       0.89892000
   122  C          0.61595000       0.52166000       0.10108000
   123  H          0.35704900       0.42001500       0.90599300
   124  H          0.64295100       0.57998500       0.09400700
   125  C          0.44075000       0.48173000       0.83193190
   126  C          0.55925000       0.51827000       0.16806810
   127  C          0.53594000       0.57512000       0.75243180
   128  C          0.46406000       0.42488000       0.24756820
   129  H          0.55415800       0.63380200       0.74596800
   130  H          0.44584200       0.36619800       0.25403200
   131  C          0.62664000       0.50482000       0.63243170
   132  C          0.37336000       0.49518000       0.36756830
   133  C          0.68785000       0.58783000       0.61852000
   134  C          0.31215000       0.41217000       0.38148000
   135  H          0.68539400       0.64778800       0.65382400
   136  H          0.31460600       0.35221200       0.34617600
   137  C          0.75285000       0.57963000       0.55072000
   138  C          0.24715000       0.42037000       0.44928000
   139  H          0.79464400       0.63435000       0.53966900
   140  H          0.20535600       0.36565000       0.46033100
   141  C          0.75525000       0.49093000       0.50032000
   142  C          0.24475000       0.50907000       0.49968000
   143  H          0.79842700       0.48675700       0.45478500
   144  H          0.20157300       0.51324300       0.54521500
   145  C          0.63515000       0.41823000       0.57772000
   146  C          0.36485000       0.58177000       0.42228000
   147  H          0.59343500       0.36215600       0.58700500
   148  H          0.40656500       0.63784400       0.41299500
