data_ODOBIT01
_symmetry_space_group_name_H-M    'P1'
_symmetry_Int_Tables_number       1
loop_
_symmetry_equiv_pos_site_id
_symmetry_equiv_pos_as_xyz
1 x,y,z
_cell_length_a                   10.549511
_cell_length_b                   10.31549
_cell_length_c                   10.220511
_cell_angle_alpha                90.0
_cell_angle_beta                 109.9044
_cell_angle_gamma                90.0
loop_
_atom_site_label
_atom_site_type_symbol
_atom_site_fract_x
_atom_site_fract_y
_atom_site_fract_z
     1  N          0.45862000       0.10842000       0.42012000
     2  N          0.54138000       0.60842000       0.07988000
     3  N          0.54138000       0.89158000       0.57988000
     4  N          0.45862000       0.39158000       0.92012000
     5  C          0.41522000      -0.00832000       0.36742000
     6  C          0.58478000       0.49168000       0.13258000
     7  C          0.58478000       0.00832000       0.63258000
     8  C          0.41522000       0.50832000       0.86742000
     9  C          0.54322000       0.11942000       0.55222000
    10  C          0.45678000       0.61942000       0.94778000
    11  C          0.45678000       0.88058000       0.44778000
    12  C          0.54322000       0.38058000       0.05222000
    13  C          0.32012000      -0.01302000       0.21972000
    14  C          0.67988000       0.48698000       0.28028000
    15  C          0.67988000       0.01302000       0.78028000
    16  C          0.32012000       0.51302000       0.71972000
    17  C          0.58632000       0.25262000       0.60582000
    18  C          0.41368000       0.75262000       0.89418000
    19  C          0.41368000       0.74738000       0.39418000
    20  C          0.58632000       0.24738000       0.10582000
    21  H          0.36980000       0.97840000       0.15820000
    22  H          0.63020000       0.47840000       0.34180000
    23  H          0.63020000       0.02160000       0.84180000
    24  H          0.36980000       0.52160000       0.65820000
    25  H          0.26170000       0.91460000       0.20900000
    26  H          0.73830000       0.41460000       0.29100000
    27  H          0.73830000       0.08540000       0.79100000
    28  H          0.26170000       0.58540000       0.70900000
    29  H          0.26820000       0.06440000       0.19860000
    30  H          0.73180000       0.56440000       0.30140000
    31  H          0.73180000       0.93560000       0.80140000
    32  H          0.26820000       0.43560000       0.69860000
    33  H          0.52360000       0.28680000       0.64490000
    34  H          0.47640000       0.78680000       0.85510000
    35  H          0.47640000       0.71320000       0.35510000
    36  H          0.52360000       0.21320000       0.14490000
    37  H          0.58870000       0.30640000       0.53120000
    38  H          0.41130000       0.80640000       0.96880000
    39  H          0.41130000       0.69360000       0.46880000
    40  H          0.58870000       0.19360000       0.03120000
    41  H          0.67340000       0.24970000       0.67490000
    42  H          0.32660000       0.74970000       0.82510000
    43  H          0.32660000       0.75030000       0.32510000
    44  H          0.67340000       0.25030000       0.17490000
    45  O          0.35820100       0.32582000       0.27322000
    46  O          0.64179900       0.82582000       0.22678000
    47  O          0.64179900       0.67418000       0.72678000
    48  O          0.35820100       0.17418000       0.77322000
    49  O          0.24745130       0.33630100       0.42240100
    50  O          0.75254870       0.83630100       0.07759900
    51  O          0.75254870       0.66369900       0.57759900
    52  O          0.24745130       0.16369900       0.92240100
    53  O          0.96638000       0.78612000      -0.00302000
    54  O          0.03362000       0.28612000       0.50302000
    55  O          0.03362000       0.21388000       0.00302000
    56  O          0.96638000       0.71388000       0.49698000
    57  C          0.19042000       0.48572000       0.23472000
    58  C          0.80958000       0.98572000       0.26528000
    59  C          0.80958000       0.51428000       0.76528000
    60  C          0.19042000       0.01428000       0.73472000
    61  C          0.09982000       0.55322000       0.28052000
    62  C          0.90018000       0.05322000       0.21948000
    63  C          0.90018000       0.44678000       0.71948000
    64  C          0.09982000       0.94678000       0.78052000
    65  C          0.02462000       0.65392000       0.20302000
    66  C          0.97538000       0.15392000       0.29698000
    67  C          0.97538000       0.34608000       0.79698000
    68  C          0.02462000       0.84608000       0.70302000
    69  C          0.04042000       0.68902000       0.07852000
    70  C          0.95958000       0.18902000       0.42148000
    71  C          0.95958000       0.31098000       0.92148000
    72  C          0.04042000       0.81098000       0.57852000
    73  C          0.13292000       0.62422000       0.03322000
    74  C          0.86708000       0.12422000       0.46678000
    75  C          0.86708000       0.37578000       0.96678000
    76  C          0.13292000       0.87578000       0.53322000
    77  C          0.20692000       0.52342000       0.11012000
    78  C          0.79308000       0.02342000       0.38988000
    79  C          0.79308000       0.47658000       0.88988000
    80  C          0.20692000       0.97658000       0.61012000
    81  C          0.26582000       0.37702000       0.31742000
    82  C          0.73418000       0.87702000       0.18258000
    83  C          0.73418000       0.62298000       0.68258000
    84  C          0.26582000       0.12298000       0.81742000
    85  H          0.38830000       0.23830000       0.32430000
    86  H          0.61170000       0.73830000       0.17570000
    87  H          0.61170000       0.76170000       0.67570000
    88  H          0.38830000       0.26170000       0.82430000
    89  H          0.08860000       0.52920000       0.36560000
    90  H          0.91140000       0.02920000       0.13440000
    91  H          0.91140000       0.47080000       0.63440000
    92  H          0.08860000       0.97080000       0.86560000
    93  H          0.96300000       0.69990000       0.23530000
    94  H          0.03700000       0.19990000       0.26470000
    95  H          0.03700000       0.30010000       0.76470000
    96  H          0.96300000       0.80010000       0.73530000
    97  H          0.14610000       0.65020000       0.94960000
    98  H          0.85390000       0.15020000       0.55040000
    99  H          0.85390000       0.34980000       0.05040000
   100  H          0.14610000       0.84980000       0.44960000
   101  H          0.26900000       0.47790000       0.07800000
   102  H          0.73100000       0.97790000       0.42200000
   103  H          0.73100000       0.52210000       0.92200000
   104  H          0.26900000       0.02210000       0.57800000
   105  H          0.89970000       0.81230000       0.02830000
   106  H          0.10030000       0.31230000       0.47170000
   107  H          0.10030000       0.18770000       0.97170000
   108  H          0.89970000       0.68770000       0.52830000
