data_ODOHAU
_symmetry_space_group_name_H-M    'P1'
_symmetry_Int_Tables_number       1
loop_
_symmetry_equiv_pos_site_id
_symmetry_equiv_pos_as_xyz
1 x,y,z
_cell_length_a                   15.17532
_cell_length_b                   6.804701
_cell_length_c                   16.24453
_cell_angle_alpha                90.0
_cell_angle_beta                 117.6952
_cell_angle_gamma                90.0
loop_
_atom_site_label
_atom_site_type_symbol
_atom_site_fract_x
_atom_site_fract_y
_atom_site_fract_z
     1  Br         0.46907200       0.42637300       0.76699200
     2  Br         0.03092800       0.92637300       0.73300800
     3  Br         0.53092800       0.57362700       0.23300800
     4  Br         0.96907200       0.07362700       0.26699200
     5  O          0.17605900       0.16062000       0.39853800
     6  O          0.32394100       0.66062000       0.10146200
     7  O          0.82394100       0.83938000       0.60146200
     8  O          0.67605900       0.33938000       0.89853800
     9  O          0.50818900       0.22414190       0.49384900
    10  O         -0.00818900       0.72414190       0.00615100
    11  O          0.49181100       0.77585810       0.50615100
    12  O          0.00818900       0.27585810      -0.00615100
    13  O          0.30674110       0.88446820       0.56343100
    14  O          0.19325890       0.38446820       0.93656900
    15  O          0.69325890       0.11553180       0.43656900
    16  O          0.80674110       0.61553180       0.06343100
    17  O          0.24232900       0.30523180       0.74056900
    18  O          0.25767100       0.80523180       0.75943100
    19  O          0.75767100       0.69476820       0.25943100
    20  O          0.74232900       0.19476820       0.24056900
    21  N          0.34644900       0.18462000       0.46771900
    22  N          0.15355100       0.68462000       0.03228100
    23  N          0.65355100       0.81538000       0.53228100
    24  N          0.84644900       0.31538000       0.96771900
    25  N          0.27478110       0.10522000       0.64877100
    26  N          0.22521890       0.60522000       0.85122900
    27  N          0.72521890       0.89478000       0.35122900
    28  N          0.77478110       0.39478000       0.14877100
    29  C          0.26809120       0.16162000       0.30863110
    30  C          0.23190880       0.66162000       0.19136890
    31  C          0.73190880       0.83838000       0.69136890
    32  C          0.76809120       0.33838000       0.80863110
    33  C          0.37007120       0.17142000       0.33851110
    34  C          0.12992880       0.67142000       0.16148890
    35  C          0.62992880       0.82858000       0.66148890
    36  C          0.87007120       0.32858000       0.83851110
    37  C          0.40820130       0.17023000       0.27658120
    38  C          0.09179870       0.67023000       0.22341880
    39  C          0.59179870       0.82977000       0.72341880
    40  C          0.90820130       0.32977000       0.77658120
    41  C          0.34054140       0.16533000       0.18215120
    42  C          0.15945860       0.66533000       0.31784880
    43  C          0.65945860       0.83467000       0.81784880
    44  C          0.84054140       0.33467000       0.68215120
    45  C          0.23866140       0.16333000       0.15227120
    46  C          0.26133860       0.66333000       0.34772880
    47  C          0.76133860       0.83667000       0.84772880
    48  C          0.73866140       0.33667000       0.65227120
    49  C          0.20054130       0.15892000       0.21530110
    50  C          0.29945870       0.65892000       0.28469890
    51  C          0.79945870       0.84108000       0.78469890
    52  C          0.70054130       0.34108000       0.71530110
    53  C          0.25179110       0.16682000       0.39182110
    54  C          0.24820890       0.66682000       0.10817890
    55  C          0.74820890       0.83318000       0.60817890
    56  C          0.75179110       0.33318000       0.89182110
    57  C          0.42174120       0.19472000       0.44142110
    58  C          0.07825880       0.69472000       0.05857890
    59  C          0.57825880       0.80528000       0.55857890
    60  C          0.92174120       0.30528000       0.94142110
    61  C          0.36210110       0.21522000       0.56152100
    62  C          0.13789890       0.71522000       0.93847900
    63  C          0.63789890       0.78478000       0.43847900
    64  C          0.86210110       0.28478000       0.06152100
    65  C          0.31154120       0.05252000       0.58847110
    66  C          0.18845880       0.55252000       0.91152890
    67  C          0.68845880       0.94748000       0.41152890
    68  C          0.81154120       0.44748000       0.08847110
    69  C          0.27835110       0.28452000       0.68821110
    70  C          0.22164890       0.78452000       0.81178890
    71  C          0.72164890       0.71548000       0.31178890
    72  C          0.77835110       0.21548000       0.18821110
    73  C          0.33209120       0.44502000       0.66634110
    74  C          0.16790880       0.94502000       0.83365890
    75  C          0.66790880       0.55498000       0.33365890
    76  C          0.83209120       0.05498000       0.16634110
    77  C          0.32997120       0.42102000       0.57330110
    78  C          0.17002880       0.92102000       0.92669890
    79  C          0.67002880       0.57898000       0.42669890
    80  C          0.82997120       0.07898000       0.07330110
    81  H          0.26011600       0.01830000       0.66981500
    82  H          0.23988400       0.51830000       0.83018500
    83  H          0.73988400      -0.01830000       0.33018500
    84  H          0.76011600       0.48170000       0.16981500
    85  H          0.47421600       0.17530000       0.29661500
    86  H          0.02578400       0.67530000       0.20338500
    87  H          0.52578400       0.82470000       0.70338500
    88  H          0.97421600       0.32470000       0.79661500
    89  H          0.36121700       0.16840000       0.13781600
    90  H          0.13878300       0.66840000       0.36218400
    91  H          0.63878300       0.83160000       0.86218400
    92  H          0.86121700       0.33160000       0.63781600
    93  H          0.19641700       0.17040000       0.08831600
    94  H          0.30358300       0.67040000       0.41168400
    95  H          0.80358300       0.82960000       0.91168400
    96  H          0.69641700       0.32960000       0.58831600
    97  H          0.13161600       0.15330000       0.19571500
    98  H          0.36838400       0.65330000       0.30428500
    99  H          0.86838400       0.84670000       0.80428500
   100  H          0.63161600       0.34670000       0.69571500
   101  H          0.43001500       0.20430000       0.59931300
   102  H          0.06998500       0.70430000       0.90068700
   103  H          0.56998500       0.79570000       0.40068700
   104  H          0.93001500       0.29570000       0.09931300
   105  H          0.31061500       0.57630000       0.67451400
   106  H          0.18938500       0.07630000       0.82548600
   107  H          0.68938500       0.42370000       0.32548600
   108  H          0.81061500       0.92370000       0.17451400
   109  H          0.26521500       0.44130000       0.52941400
   110  H          0.23478500       0.94130000       0.97058600
   111  H          0.73478500       0.55870000       0.47058600
   112  H          0.76521500       0.05870000       0.02941400
   113  H          0.36911500       0.51530000       0.56531400
   114  H          0.13088500       0.01530000       0.93468600
   115  H          0.63088500       0.48470000       0.43468600
   116  H          0.86911500      -0.01530000       0.06531400
   117  O          0.10043100       0.46633000       0.52261120
   118  O          0.39956900       0.96633000       0.97738880
   119  O          0.89956900       0.53367000       0.47738880
   120  O          0.60043100       0.03367000       0.02261120
   121  C          0.96547840       0.69214000       0.49140180
   122  C          0.53452160       0.19214000       0.00859820
   123  C          0.03452160       0.30786000       0.50859820
   124  C          0.46547840       0.80786000      -0.00859820
   125  C          0.07084170       0.63264000       0.55642000
   126  C          0.42915830       0.13264000       0.94358000
   127  C          0.92915830       0.36736000       0.44358000
   128  C          0.57084170       0.86736000       0.05642000
   129  H          0.96168100       0.72640000       0.43001900
   130  H          0.53831900       0.22640000       0.06998100
   131  H          0.03831900       0.27360000       0.56998100
   132  H          0.46168100       0.77360000       0.93001900
   133  H          0.94780000       0.79840000       0.52220000
   134  H          0.55220000       0.29840000       0.97780000
   135  H          0.05220000       0.20160000       0.47780000
   136  H          0.44780000       0.70160000       0.02220000
   137  H          0.11720000       0.73540000       0.56331900
   138  H          0.38280000       0.23540000       0.93668100
   139  H          0.88280000       0.26460000       0.43668100
   140  H          0.61720000       0.76460000       0.06331900
   141  H          0.07920000       0.60150000       0.61720000
   142  H          0.42080000       0.10150000       0.88280000
   143  H          0.92080000       0.39850000       0.38280000
   144  H          0.57920000       0.89850000       0.11720000
