data_OFENAS
_symmetry_space_group_name_H-M    'P1'
_symmetry_Int_Tables_number       1
loop_
_symmetry_equiv_pos_site_id
_symmetry_equiv_pos_as_xyz
1 x,y,z
_cell_length_a                   8.20983
_cell_length_b                   8.21114
_cell_length_c                   21.36631
_cell_angle_alpha                83.0872
_cell_angle_beta                 80.8922
_cell_angle_gamma                87.3512
loop_
_atom_site_label
_atom_site_type_symbol
_atom_site_fract_x
_atom_site_fract_y
_atom_site_fract_z
     1  Cl         0.94146150       0.36992000       0.28250700
     2  Cl         0.05853850       0.63008000       0.71749300
     3  Cl         0.33388140       0.26422000       0.22657700
     4  Cl         0.66611860       0.73578000       0.77342300
     5  Cl         0.64832180       0.69132180       0.22189700
     6  Cl         0.35167820       0.30867820       0.77810300
     7  Cl         0.03362000       0.90242000       0.29695100
     8  Cl         0.96638000       0.09758000       0.70304900
     9  Cl         0.23495170       0.32682170       0.40471700
    10  Cl         0.76504830       0.67317830       0.59528300
    11  Cl         0.65239190       0.61674140       0.40231700
    12  Cl         0.34760810       0.38325860       0.59768300
    13  Cl         0.82833000       0.09142000       0.54967800
    14  Cl         0.17167000       0.90858000       0.45032200
    15  Cl         0.57592000       0.00160150       0.34276800
    16  Cl         0.42408000      -0.00160150       0.65723200
    17  O          0.03985000       0.13406000       0.06142000
    18  O          0.96015000       0.86594000       0.93858000
    19  H          0.07787800       0.07877000       0.03266800
    20  H          0.92212200       0.92123000       0.96733200
    21  O          0.80405000       0.00896000       0.04516190
    22  O          0.19595000      -0.00896000       0.95483810
    23  H          0.71424000       0.98096200       0.06531700
    24  H          0.28576000       0.01903800       0.93468300
    25  C          0.63895000       0.31315000       0.25342000
    26  C          0.36105000       0.68685000       0.74658000
    27  C          0.56296000       0.37666000       0.31302000
    28  C          0.43704000       0.62334000       0.68698000
    29  C          0.81135000       0.29656000       0.23652000
    30  C          0.18865000       0.70344000       0.76348000
    31  C          0.88415000       0.23196000       0.18222000
    32  C          0.11585000       0.76804000       0.81778000
    33  H         -0.00139100       0.22588200       0.17276700
    34  H          0.00139100       0.77411800       0.82723300
    35  C          0.79046000       0.17556000       0.14142000
    36  C          0.20954000       0.82444000       0.85858000
    37  C          0.62006000       0.19046000       0.15652000
    38  C          0.37994000       0.80954000       0.84348000
    39  H          0.55358700       0.15303500       0.13006900
    40  H          0.44641300       0.84696500       0.86993100
    41  C          0.54775000       0.25996000       0.21022000
    42  C          0.45225000       0.74004000       0.78978000
    43  C          0.43625000       0.50915000       0.31122000
    44  C          0.56375000       0.49085000       0.68878000
    45  C          0.45926000       0.65266000       0.26902000
    46  C          0.54074000       0.34734000       0.73098000
    47  C          0.33746000       0.77486000       0.26402000
    48  C          0.66254000       0.22514000       0.73598000
    49  H          0.35686900       0.86848300       0.23504200
    50  H          0.64313100       0.13151700       0.76495800
    51  C          0.18906000       0.75446000       0.30243000
    52  C          0.81094000       0.24554000       0.69757000
    53  C          0.15976000       0.61936000       0.34703000
    54  C          0.84024000       0.38064000       0.65297000
    55  H          0.05916900       0.60881700       0.37401700
    56  H          0.94083100       0.39118300       0.62598300
    57  C          0.28346000       0.49915000       0.35092000
    58  C          0.71654000       0.50085000       0.64908000
    59  C          0.61815000       0.30805000       0.37292000
    60  C          0.38185000       0.69195000       0.62708000
    61  C          0.66126000       0.40465000       0.41732000
    62  C          0.33874000       0.59535000       0.58268000
    63  C          0.72467000       0.34046000       0.47142000
    64  C          0.27533000       0.65954000       0.52858000
    65  H          0.75394100       0.40901400       0.49911200
    66  H          0.24605900       0.59098600       0.50088800
    67  C          0.74387000       0.17266000       0.48352000
    68  C          0.25613000       0.82734000       0.51648000
    69  C          0.69997000       0.07066000       0.44333000
    70  C          0.30003000       0.92934000       0.55667000
    71  H          0.71205200       0.95737100       0.45203000
    72  H          0.28794800       0.04262900       0.54797000
    73  C          0.63746000       0.13855000       0.38962000
    74  C          0.36254000       0.86145000       0.61038000
    75  B          0.88048000       0.10158000       0.08013000
    76  B          0.11952000       0.89842000       0.91987000
    77  O          0.50136000       0.87577000       0.07822000
    78  O          0.49864000       0.12423000       0.92178000
    79  O          0.36227000       0.65358000       0.07553000
    80  O          0.63773000       0.34642000       0.92447000
    81  C          0.63901300       0.64711700       0.03228000
    82  C          0.36098700       0.35288300       0.96772000
    83  H          0.64572700       0.66771600       0.98670300
    84  H          0.35427300       0.33228400       0.01329700
    85  H          0.62582900       0.53185000       0.04536400
    86  H          0.37417100       0.46815000       0.95463600
    87  H          0.73833600       0.68147700       0.04455200
    88  H          0.26166400       0.31852300       0.95544800
    89  C          0.49511000       0.74031300       0.06325000
    90  C          0.50489000       0.25968700       0.93675000
    91  C          0.21571000       0.72491300       0.10934000
    92  C          0.78429000       0.27508700       0.89066000
    93  H          0.23041700       0.73231400       0.15305000
    94  H          0.76958300       0.26768600       0.84695000
    95  H          0.19570200       0.83485700       0.08928200
    96  H          0.80429800       0.16514300       0.91071800
    97  C          0.07931300       0.62611600       0.10857000
    98  C          0.92068700       0.37388400       0.89143000
    99  H          0.08022400       0.59830100       0.06608500
   100  H          0.91977600       0.40169900       0.93391500
   101  H          0.97871400       0.68543200       0.12176500
   102  H          0.02128600       0.31456800       0.87823500
   103  H          0.08649700       0.52744300       0.13717500
   104  H          0.91350300       0.47255700       0.86282500
