data_OFEWAX
_symmetry_space_group_name_H-M    'P1'
_symmetry_Int_Tables_number       1
loop_
_symmetry_equiv_pos_site_id
_symmetry_equiv_pos_as_xyz
1 x,y,z
_cell_length_a                   14.26295
_cell_length_b                   16.18514
_cell_length_c                   7.78352
_cell_angle_alpha                90.0
_cell_angle_beta                 94.39179
_cell_angle_gamma                90.0
loop_
_atom_site_label
_atom_site_type_symbol
_atom_site_fract_x
_atom_site_fract_y
_atom_site_fract_z
     1  S          0.44791300       0.55977200       0.85382500
     2  S          0.05208700       0.05977200       0.64617500
     3  S          0.55208700       0.44022800       0.14617500
     4  S          0.94791300       0.94022800       0.35382500
     5  N          0.36024900       0.61984800       0.79190160
     6  N          0.13975100       0.11984800       0.70809840
     7  N          0.63975100       0.38015200       0.20809840
     8  N          0.86024900       0.88015200       0.29190160
     9  C          0.34979110       0.70516100       0.83041180
    10  C          0.15020890       0.20516100       0.66958820
    11  C          0.65020890       0.29483900       0.16958820
    12  C          0.84979110       0.79483900       0.33041180
    13  O          0.40523800       0.74560700       0.90378140
    14  O          0.09476200       0.24560700       0.59621860
    15  O          0.59476200       0.25439300       0.09621860
    16  O          0.90523800       0.75439300       0.40378140
    17  C          0.28322110       0.58913100       0.70206190
    18  C          0.21677890       0.08913100       0.79793810
    19  C          0.71677890       0.41086900       0.29793810
    20  C          0.78322110       0.91086900       0.20206190
    21  O          0.27727800       0.51960700       0.65138150
    22  O          0.22272200       0.01960700       0.84861850
    23  O          0.72272200       0.48039300       0.34861850
    24  O          0.77727800       0.98039300       0.15138150
    25  C          0.21971110       0.66113100       0.68942190
    26  C          0.28028890       0.16113100       0.81057810
    27  C          0.78028890       0.33886900       0.31057810
    28  C          0.71971110       0.83886900       0.18942190
    29  C          0.13444110       0.66653100       0.61582190
    30  C          0.36555890       0.16653100       0.88417810
    31  C          0.86555890       0.33346900       0.38417810
    32  C          0.63444110       0.83346900       0.11582190
    33  C          0.09067120       0.74383110       0.61852000
    34  C          0.40932880       0.24383110       0.88148000
    35  C          0.90932880       0.25616890       0.38148000
    36  C          0.59067120       0.75616890       0.11852000
    37  C          0.13126120       0.81247110       0.68982190
    38  C          0.36873880       0.31247110       0.81017810
    39  C          0.86873880       0.18752890       0.31017810
    40  C          0.63126120       0.68752890       0.18982190
    41  C          0.21709110       0.80689100       0.76358190
    42  C          0.28290890       0.30689100       0.73641810
    43  C          0.78290890       0.19310900       0.23641810
    44  C          0.71709110       0.69310900       0.26358190
    45  C          0.25971100       0.72993100       0.76244180
    46  C          0.24028900       0.22993100       0.73755820
    47  C          0.74028900       0.27006900       0.23755820
    48  C          0.75971100       0.77006900       0.26244180
    49  S          0.54868300       0.56149200       0.65421500
    50  S          0.95131700       0.06149200       0.84578500
    51  S          0.45131700       0.43850800       0.34578500
    52  S          0.04868300       0.93850800       0.15421500
    53  N          0.62227900       0.63917800       0.69718170
    54  N          0.87772100       0.13917800       0.80281830
    55  N          0.37772100       0.36082200       0.30281830
    56  N          0.12227900       0.86082200       0.19718170
    57  C          0.61083110       0.72280100       0.64417190
    58  C          0.88916890       0.22280100       0.85582810
    59  C          0.38916890       0.27719900       0.35582810
    60  C          0.11083110       0.77719900       0.14417190
    61  O          0.54461800       0.74750700       0.57230140
    62  O          0.95538200       0.24750700       0.92769860
    63  O          0.45538200       0.25249300       0.42769860
    64  O          0.04461800       0.75249300       0.07230140
    65  C          0.70568110       0.62875100       0.78474190
    66  C          0.79431890       0.12875100       0.71525810
    67  C          0.29431890       0.37124900       0.21525810
    68  C          0.20568110       0.87124900       0.28474190
    69  O          0.72926800       0.56534700       0.84908150
    70  O          0.77073200       0.06534700       0.65091850
    71  O          0.27073200       0.43465300       0.15091850
    72  O          0.22926800       0.93465300       0.34908150
    73  C          0.75191110       0.71100100       0.77728190
    74  C          0.74808890       0.21100100       0.72271810
    75  C          0.24808890       0.28899900       0.22271810
    76  C          0.25191110       0.78899900       0.27728190
    77  C          0.83635110       0.73462100       0.83965190
    78  C          0.66364890       0.23462100       0.66034810
    79  C          0.16364890       0.26537900       0.16034810
    80  C          0.33635110       0.76537900       0.33965190
    81  C          0.86181120       0.81752100       0.82062000
    82  C          0.63818880       0.31752100       0.67938000
    83  C          0.13818880       0.18247900       0.17938000
    84  C          0.36181120       0.68247900       0.32062000
    85  C          0.80422120       0.87378100       0.74292000
    86  C          0.69577880       0.37378100       0.75708000
    87  C          0.19577880       0.12621900       0.25708000
    88  C          0.30422120       0.62621900       0.24292000
    89  C          0.71934120       0.84895100       0.67942000
    90  C          0.78065880       0.34895100       0.82058000
    91  C          0.28065880       0.15104900       0.32058000
    92  C          0.21934120       0.65104900       0.17942000
    93  C          0.69480110       0.76677100       0.69752180
    94  C          0.80519890       0.26677100       0.80247820
    95  C          0.30519890       0.23322900       0.30247820
    96  C          0.19480110       0.73322900       0.19752180
    97  H          0.10360000       0.62000000       0.56290000
    98  H          0.39640000       0.12000000       0.93710000
    99  H          0.89640000       0.38000000       0.43710000
   100  H          0.60360000       0.88000000       0.06290000
   101  H          0.02840000       0.74840000       0.56680000
   102  H          0.47160000       0.24840000       0.93320000
   103  H          0.97160000       0.25160000       0.43320000
   104  H          0.52840000       0.75160000       0.06680000
   105  H          0.09850000       0.86360000       0.68670000
   106  H          0.40150000       0.36360000       0.81330000
   107  H          0.90150000       0.13640000       0.31330000
   108  H          0.59850000       0.63640000       0.18670000
   109  H          0.24850000       0.85350000       0.81530000
   110  H          0.25150000       0.35350000       0.68470000
   111  H          0.75150000       0.14650000       0.18470000
   112  H          0.74850000       0.64650000       0.31530000
   113  H          0.87880000       0.69630000       0.89610000
   114  H          0.62120000       0.19630000       0.60390000
   115  H          0.12120000       0.30370000       0.10390000
   116  H          0.37880000       0.80370000       0.39610000
   117  H          0.92270000       0.83460000       0.86480000
   118  H          0.57730000       0.33460000       0.63520000
   119  H          0.07730000       0.16540000       0.13520000
   120  H          0.42270000       0.66540000       0.36480000
   121  H          0.82330000       0.92970000       0.73330000
   122  H          0.67670000       0.42970000       0.76670000
   123  H          0.17670000       0.07030000       0.26670000
   124  H          0.32330000       0.57030000       0.23330000
   125  H          0.67650000       0.88690000       0.62280000
   126  H          0.82350000       0.38690000       0.87720000
   127  H          0.32350000       0.11310000       0.37720000
   128  H          0.17650000       0.61310000       0.12280000
   129  C          0.97302110       0.53536100       0.34432000
   130  C          0.52697890       0.03536100       0.15568000
   131  C          0.02697890       0.46463900       0.65568000
   132  C          0.47302110       0.96463900       0.84432000
   133  C          0.92293110       0.55176900       0.50172000
   134  C          0.57706890       0.05176900      -0.00172000
   135  C          0.07706890       0.44823100       0.49828000
   136  C          0.42293110       0.94823100       0.00172000
   137  C          0.05049110       0.48287100       0.34582000
   138  C          0.44950890       0.98287100       0.15418000
   139  C          0.94950890       0.51712900       0.65418000
   140  C          0.55049110       0.01712900       0.84582000
   141  C          0.94193130       0.57073100       0.17962000
   142  C          0.55806870       0.07073100       0.32038000
   143  C          0.05806870       0.42926900       0.82038000
   144  C          0.44193130       0.92926900       0.67962000
   145  H          0.87040000       0.58800000       0.49390000
   146  H          0.62960000       0.08800000       0.00610000
   147  H          0.12960000       0.41200000       0.50610000
   148  H          0.37040000       0.91200000      -0.00610000
   149  H          0.08240000       0.47230000       0.24530000
   150  H          0.41760000       0.97230000       0.25470000
   151  H          0.91760000       0.52770000       0.75470000
   152  H          0.58240000       0.02770000       0.74530000
   153  H         -0.00760000       0.56640000       0.10140000
   154  H          0.50760000       0.06640000       0.39860000
   155  H          0.00760000       0.43360000       0.89860000
   156  H          0.49240000       0.93360000       0.60140000
   157  H          0.92590000       0.62900000       0.19490000
   158  H          0.57410000       0.12900000       0.30510000
   159  H          0.07410000       0.37100000       0.80510000
   160  H          0.42590000       0.87100000       0.69490000
   161  H          0.88640000       0.54080000       0.13070000
   162  H          0.61360000       0.04080000       0.36930000
   163  H          0.11360000       0.45920000       0.86930000
   164  H          0.38640000       0.95920000       0.63070000
