data_OFONAA
_symmetry_space_group_name_H-M    'P1'
_symmetry_Int_Tables_number       1
loop_
_symmetry_equiv_pos_site_id
_symmetry_equiv_pos_as_xyz
1 x,y,z
_cell_length_a                   5.0435
_cell_length_b                   11.2935
_cell_length_c                   11.5295
_cell_angle_alpha                60.7445
_cell_angle_beta                 80.6645
_cell_angle_gamma                87.1615
loop_
_atom_site_label
_atom_site_type_symbol
_atom_site_fract_x
_atom_site_fract_y
_atom_site_fract_z
     1  C          0.83525000       0.15753000       0.43413000
     2  C          0.16475000       0.84247000       0.56587000
     3  C         -0.01705000       0.24973000       0.30653000
     4  C          0.01705000       0.75027000       0.69347000
     5  C          0.89226000       0.38333000       0.24003000
     6  C          0.10774000       0.61667000       0.75997000
     7  H         -0.00950000       0.44760000       0.15610000
     8  H          0.00950000       0.55240000       0.84390000
     9  C          0.66436000       0.42243000       0.29423000
    10  C          0.33564000       0.57757000       0.70577000
    11  H          0.60860000       0.51320000       0.24730000
    12  H          0.39140000       0.48680000       0.75270000
    13  C          0.51426000       0.33153000       0.41643000
    14  C          0.48574000       0.66847000       0.58357000
    15  H          0.35500000       0.35870000       0.45230000
    16  H          0.64500000       0.64130000       0.54770000
    17  C          0.60145000       0.20063000       0.48463000
    18  C          0.39855000       0.79937000       0.51537000
    19  H          0.49990000       0.13790000       0.56830000
    20  H          0.50010000       0.86210000       0.43170000
    21  C          0.35475000       0.30123000       0.12143000
    22  C          0.64525000       0.69877000       0.87857000
    23  H          0.41690000       0.38230000       0.12280000
    24  H          0.58310000       0.61770000       0.87720000
    25  H          0.23980000       0.33190000       0.05050000
    26  H          0.76020000       0.66810000       0.94950000
    27  C          0.59305000       0.23093000       0.08973000
    28  C          0.40695000       0.76907000       0.91027000
    29  N          0.89464000       0.02292000       0.52032000
    30  N          0.10536000       0.97708000       0.47968000
    31  N          0.20165000       0.21102000       0.24952000
    32  N          0.79835000       0.78898000       0.75048000
    33  O          0.74824000       0.31692000       0.97694810
    34  O          0.25176000       0.68308000       0.02305190
    35  O          0.63474000       0.11225190       0.15680190
    36  O          0.36526000       0.88774810       0.84319810
    37  H          0.25960000       0.13430000       0.29530000
    38  H          0.74040000       0.86570000       0.70470000
    39  H          0.87680000       0.27540000       0.95460000
    40  H          0.12320000       0.72460000       0.04540000
    41  C          0.09957000       0.65647000       0.33203000
    42  C          0.90043000       0.34353000       0.66797000
    43  H         -0.01720000       0.57440000       0.37950000
    44  H          0.01720000       0.42560000       0.62050000
    45  H          0.17130000       0.67210000       0.39760000
    46  H          0.82870000       0.32790000       0.60240000
    47  H          0.24840000       0.64510000       0.27250000
    48  H          0.75160000       0.35490000       0.72750000
    49  C          0.17406000       0.92447000       0.16503000
    50  C          0.82594000       0.07553000       0.83497000
    51  H          0.10520000       0.01310000       0.10610000
    52  H          0.89480000       0.98690000       0.89390000
    53  H          0.31960000       0.90140000       0.11280000
    54  H          0.68040000       0.09860000       0.88720000
    55  H          0.24250000       0.92830000       0.23800000
    56  H          0.75750000       0.07170000       0.76200000
    57  O          0.85084000       0.77803810       0.12044180
    58  O          0.14916000       0.22196190       0.87955820
    59  S          0.91002140       0.79853300       0.23429700
    60  S          0.08997860       0.20146700       0.76570300
