data_OGEDAJ01
_symmetry_space_group_name_H-M    'P1'
_symmetry_Int_Tables_number       1
loop_
_symmetry_equiv_pos_site_id
_symmetry_equiv_pos_as_xyz
1 x,y,z
_cell_length_a                   4.050564
_cell_length_b                   49.89024
_cell_length_c                   19.0488016
_cell_angle_alpha                90.0
_cell_angle_beta                 93.25398
_cell_angle_gamma                90.0
loop_
_atom_site_label
_atom_site_type_symbol
_atom_site_fract_x
_atom_site_fract_y
_atom_site_fract_z
     1  I          0.34263600       0.31521150       0.77645911
     2  I          0.15736400       0.81521150       0.72354089
     3  I          0.65736400       0.68478850       0.22354089
     4  I          0.84263600       0.18478850       0.27645911
     5  Cl         0.64287000       0.26497219       0.54002600
     6  Cl         0.85713000       0.76497219       0.95997400
     7  Cl         0.35713000       0.73502781       0.45997400
     8  Cl         0.14287000       0.23502781       0.04002600
     9  Cl         0.95407000       0.26370218       0.69304500
    10  Cl         0.54593000       0.76370218       0.80695500
    11  Cl         0.04593000       0.73629782       0.30695500
    12  Cl         0.45407000       0.23629782       0.19304500
    13  Cl         0.35633000       0.36659200       0.66140600
    14  Cl         0.14367000       0.86659200       0.83859400
    15  Cl         0.64367000       0.63340800       0.33859400
    16  Cl         0.85633000       0.13340800       0.16140600
    17  Cl         0.06174000       0.36518200       0.50649600
    18  Cl         0.43826000       0.86518200      -0.00649600
    19  Cl         0.93826000       0.63481800       0.49350400
    20  Cl         0.56174000       0.13481800       0.00649600
    21  C          0.14068000       0.31525700       0.67208170
    22  C          0.35932000       0.81525700       0.82791830
    23  C          0.85932000       0.68474300       0.32791830
    24  C          0.64068000       0.18474300       0.17208170
    25  C         -0.01669000       0.29260700       0.64379180
    26  C          0.51669000       0.79260700       0.85620820
    27  C          0.01669000       0.70739300       0.35620820
    28  C          0.48331000       0.20739300       0.14379180
    29  C          0.16369000       0.33779700       0.62941180
    30  C          0.33631000       0.83779700       0.87058820
    31  C          0.83631000       0.66220300       0.37058820
    32  C          0.66369000       0.16220300       0.12941180
    33  C          0.84401000       0.29288700       0.57546190
    34  C          0.65599000       0.79288700       0.92453810
    35  C          0.15599000       0.70711300       0.42453810
    36  C          0.34401000       0.20711300       0.07546190
    37  C          0.02841000       0.33756700       0.56079190
    38  C          0.47159000       0.83756700       0.93920810
    39  C         -0.02841000       0.66243300       0.43920810
    40  C          0.52841000       0.16243300       0.06079190
    41  C          0.86649000       0.31521700       0.53360190
    42  C          0.63351000       0.81521700       0.96639810
    43  C          0.13351000       0.68478300       0.46639810
    44  C          0.36649000       0.18478300       0.03360190
    45  H          0.77409000       0.31523700       0.48778190
    46  H          0.72591000       0.81523700       0.01221810
    47  H          0.22591000       0.68476300       0.51221810
    48  H          0.27409000       0.18476300       0.98778190
    49  I          0.12157600       0.44963760       0.35180112
    50  I          0.37842400       0.94963760       0.14819888
    51  I          0.87842400       0.55036240       0.64819888
    52  I          0.62157600       0.05036240       0.85180112
    53  Cl         0.92377000       0.49708200       0.23089600
    54  Cl         0.57623000       0.99708200       0.26910400
    55  Cl         0.07623000       0.50291800       0.76910400
    56  Cl         0.42377000       0.00291800       0.73089600
    57  Cl         0.55836000       0.48703200       0.08478600
    58  Cl         0.94164000       0.98703200       0.41521400
    59  Cl         0.44164000       0.51296800       0.91521400
    60  Cl         0.05836000       0.01296800       0.58478600
    61  Cl         0.88476000       0.39036200       0.28200700
    62  Cl         0.61524000       0.89036200       0.21799300
    63  Cl         0.11524000       0.60963800       0.71799300
    64  Cl         0.38476000       0.10963800       0.78200700
    65  Cl         0.53346000       0.38222200       0.13340700
    66  Cl        -0.03346000       0.88222200       0.36659300
    67  Cl         0.46654000       0.61777800       0.86659300
    68  Cl         0.03346000       0.11777800       0.63340700
    69  C          0.88931000       0.44335700       0.25126170
    70  C          0.61069000       0.94335700       0.24873830
    71  C          0.11069000       0.55664300       0.74873830
    72  C          0.38931000       0.05664300       0.75126170
    73  C          0.81519000       0.46488700       0.20623180
    74  C          0.68481000       0.96488700       0.29376820
    75  C          0.18481000       0.53511300       0.79376820
    76  C          0.31519000       0.03511300       0.70623180
    77  C          0.56869000       0.43516800       0.11876190
    78  C          0.93131000       0.93516800       0.38123810
    79  C          0.43131000       0.56483200       0.88123810
    80  C          0.06869000       0.06483200       0.61876190
    81  H          0.46249000       0.43239800       0.07478190
    82  H          0.03751000       0.93239800       0.42521810
    83  H          0.53751000       0.56760200       0.92521810
    84  H          0.96249000       0.06760200       0.57478190
    85  C          0.65499000       0.46056800       0.14090190
    86  C          0.84501000       0.96056800       0.35909810
    87  C          0.34501000       0.53943200       0.85909810
    88  C          0.15499000       0.03943200       0.64090190
    89  C          0.80119000       0.41783700       0.22882190
    90  C          0.69881000       0.91783700       0.27117810
    91  C          0.19881000       0.58216300       0.77117810
    92  C          0.30119000       0.08216300       0.72882190
    93  C          0.64279000       0.41383800       0.16312000
    94  C          0.85721000       0.91383800       0.33688000
    95  C          0.35721000       0.58616200       0.83688000
    96  C          0.14279000       0.08616200       0.66312000
    97  N          0.61759000       0.31439700       0.91655170
    98  N          0.88241000       0.81439700       0.58344830
    99  N          0.38241000       0.68560300       0.08344830
   100  N          0.11759000       0.18560300       0.41655170
   101  N          0.36881100       0.30821900       0.39210180
   102  N          0.13118900       0.80821900       0.10789820
   103  N          0.63118900       0.69178100       0.60789820
   104  N          0.86881100       0.19178100       0.89210180
   105  C          0.85781000       0.31713700       0.05698190
   106  C          0.64219000       0.81713700       0.44301810
   107  C          0.14219000       0.68286300       0.94301810
   108  C          0.35781000       0.18286300       0.55698190
   109  C          0.12631000       0.30405800       0.25165180
   110  C          0.37369000       0.80405800       0.24834820
   111  C          0.87369000       0.69594200       0.74834820
   112  C          0.62631000       0.19594200       0.75165180
   113  C         -0.00998900       0.30116800       0.17862000
   114  C          0.50998900       0.80116800       0.32138000
   115  C          0.00998900       0.69883200       0.82138000
   116  C          0.49001100       0.19883200       0.67862000
   117  H          0.89261100       0.28483800       0.16622000
   118  H          0.60738900       0.78483800       0.33378000
   119  H          0.10738900       0.71516200       0.83378000
   120  H          0.39261100       0.21516200       0.66622000
   121  C         -0.00578900       0.31947800       0.13012000
   122  C          0.50578900       0.81947800       0.36988000
   123  C          0.00578900       0.68052200       0.86988000
   124  C          0.49421100       0.18052200       0.63012000
   125  H          0.09341100       0.33570800       0.14282000
   126  H          0.40658900       0.83570800       0.35718000
   127  H          0.90658900       0.66429200       0.85718000
   128  H          0.59341100       0.16429200       0.64282000
   129  C          0.78761100       0.33544900       0.94072000
   130  C          0.71238900       0.83544900       0.55928000
   131  C          0.21238900       0.66455100       0.05928000
   132  C          0.28761100       0.16455100       0.44072000
   133  H          0.82681100       0.34934900       0.90972000
   134  H          0.67318900       0.84934900       0.59028000
   135  H          0.17318900       0.65065100       0.09028000
   136  H          0.32681100       0.15065100       0.40972000
   137  C          0.29431100       0.32667800       0.27652000
   138  C          0.20568900       0.82667800       0.22348000
   139  C          0.70568900       0.67332200       0.72348000
   140  C          0.79431100       0.17332200       0.77652000
   141  H          0.32991100       0.34099800       0.24652000
   142  H          0.17008900       0.84099800       0.25348000
   143  H          0.67008900       0.65900200       0.75348000
   144  H          0.82991100       0.15900200       0.74652000
   145  C          0.68031100       0.29520800       0.03122000
   146  C          0.81968900       0.79520800       0.46878000
   147  C          0.31968900       0.70479200       0.96878000
   148  C          0.18031100       0.20479200       0.53122000
   149  H          0.63791100       0.28091800       0.06072000
   150  H          0.86208900       0.78091800       0.43928000
   151  H          0.36208900       0.71908200       0.93928000
   152  H          0.13791100       0.21908200       0.56072000
   153  C          0.90941100       0.33777800       0.00962000
   154  C          0.59058900       0.83777800       0.49038000
   155  C          0.09058900       0.66222200       0.99038000
   156  C          0.40941100       0.16222200       0.50962000
   157  H          0.02551100       0.35304800       0.02432000
   158  H          0.47448900       0.85304800       0.47568000
   159  H         -0.02551100       0.64695200       0.97568000
   160  H          0.52551100       0.14695200       0.52432000
   161  C          0.08641200       0.28331800       0.29942000
   162  C          0.41358800       0.78331800       0.20058000
   163  C          0.91358800       0.71668200       0.70058000
   164  C          0.58641200       0.21668200       0.79942000
   165  H         -0.02188800       0.26759800       0.28542000
   166  H          0.52188800       0.76759800       0.21458000
   167  H          0.02188800       0.73240200       0.71458000
   168  H          0.47811200       0.23240200       0.78542000
   169  C          0.56721100       0.29462900       0.96202000
   170  C          0.93278900       0.79462900       0.53798000
   171  C          0.43278900       0.70537100       0.03798000
   172  C          0.06721100       0.20537100       0.46202000
   173  H          0.44901100       0.27965900       0.94592000
   174  H          0.05098900       0.77965900       0.55408000
   175  H          0.55098900       0.72034100       0.05408000
   176  H          0.94901100       0.22034100       0.44592000
   177  C          0.40761300       0.32768900       0.34592000
   178  C          0.09238700       0.82768900       0.15408000
   179  C          0.59238700       0.67231100       0.65408000
   180  C          0.90761300       0.17231100       0.84592000
   181  H          0.51891300       0.34306900       0.36152000
   182  H         -0.01891300       0.84306900       0.13848000
   183  H          0.48108700       0.65693100       0.63848000
   184  H          0.01891300       0.15693100       0.86152000
   185  C          0.21101400       0.28658100       0.36792000
   186  C          0.28898600       0.78658100       0.13208000
   187  C          0.78898600       0.71341900       0.63208000
   188  C          0.71101400       0.21341900       0.86792000
   189  H          0.18201400       0.27259100       0.39922000
   190  H          0.31798600       0.77259100       0.10078000
   191  H          0.81798600       0.72740900       0.60078000
   192  H          0.68201400       0.22740900       0.89922000
   193  N          0.41281000       0.45287800       0.49397180
   194  N          0.08719000       0.95287800       0.00602820
   195  N          0.58719000       0.54712200       0.50602820
   196  N          0.91281000       0.04712200      -0.00602820
   197  N          0.14381100       0.42052900       0.96452190
   198  N          0.35618900       0.92052900       0.53547810
   199  N          0.85618900       0.57947100       0.03547810
   200  N          0.64381100       0.07947100       0.46452190
   201  C          0.59611000       0.44636800       0.63644190
   202  C          0.90389000       0.94636800       0.86355810
   203  C          0.40389000       0.55363200       0.36355810
   204  C          0.09611000       0.05363200       0.13644190
   205  C          0.94671000       0.42448800       0.82127190
   206  C          0.55329000       0.92448800       0.67872810
   207  C          0.05329000       0.57551200       0.17872810
   208  C          0.44671000       0.07551200       0.32127190
   209  C          0.66961100       0.42708800       0.58722000
   210  C          0.83038900       0.92708800       0.91278000
   211  C          0.33038900       0.57291200       0.41278000
   212  C          0.16961100       0.07291200       0.08722000
   213  H          0.78011100       0.41145800       0.60112000
   214  H          0.71988900       0.91145800       0.89888000
   215  H          0.21988900       0.58854200       0.39888000
   216  H          0.28011100       0.08854200       0.10112000
   217  C          0.85801100       0.42554800       0.74472000
   218  C          0.64198900       0.92554800       0.75528000
   219  C          0.14198900       0.57445200       0.25528000
   220  C          0.35801100       0.07445200       0.24472000
   221  H          0.93471100       0.41174800       0.71722000
   222  H          0.56528900       0.91174800       0.78278000
   223  H          0.06528900       0.58825200       0.28278000
   224  H          0.43471100       0.08825200       0.21722000
   225  C          0.57611200       0.43146900       0.51722000
   226  C          0.92388800       0.93146900       0.98278000
   227  C          0.42388800       0.56853100       0.48278000
   228  C          0.07611200       0.06853100       0.01722000
   229  H          0.63151200       0.41857900       0.48462000
   230  H          0.86848800       0.91857900       0.01538000
   231  H          0.36848800       0.58142100       0.51538000
   232  H          0.13151200       0.08142100       0.98462000
   233  C          0.42941200       0.46884900       0.61212000
   234  C          0.07058800       0.96884900       0.88788000
   235  C          0.57058800       0.53115100       0.38788000
   236  C          0.92941200       0.03115100       0.11212000
   237  H          0.37541200       0.48232900       0.64312000
   238  H          0.12458800       0.98232900       0.85688000
   239  H          0.62458800       0.51767100       0.35688000
   240  H          0.87541200       0.01767100       0.14312000
   241  C          0.68061100       0.44431800       0.71272000
   242  C          0.81938900       0.94431800       0.78728000
   243  C          0.31938900       0.55568200       0.28728000
   244  C          0.18061100       0.05568200       0.21272000
   245  H          0.59951100       0.45774800       0.74092000
   246  H          0.90048900       0.95774800       0.75908000
   247  H          0.40048900       0.54225200       0.25908000
   248  H          0.09951100       0.04225200       0.24092000
   249  C          0.12361200       0.40279900       0.84812000
   250  C          0.37638800       0.90279900       0.65188000
   251  C          0.87638800       0.59720100       0.15188000
   252  C          0.62361200       0.09720100       0.34812000
   253  H          0.18121200       0.38895900       0.81852000
   254  H          0.31878800       0.88895900       0.68148000
   255  H          0.81878800       0.61104100       0.18148000
   256  H          0.68121200       0.11104100       0.31852000
   257  C          0.86781200       0.44423900       0.86862000
   258  C          0.63218800       0.94423900       0.63138000
   259  C          0.13218800       0.55576100       0.13138000
   260  C          0.36781200       0.05576100       0.36862000
   261  H          0.74681200       0.45921900       0.85362000
   262  H          0.75318800       0.95921900       0.64638000
   263  H          0.25318800       0.54078100       0.14638000
   264  H          0.24681200       0.04078100       0.35362000
   265  C          0.34341200       0.47122100       0.54163000
   266  C          0.15658800       0.97122100       0.95837000
   267  C          0.65658800       0.52877900       0.45837000
   268  C          0.84341200       0.02877900       0.04163000
   269  H          0.23011200       0.48655100       0.52623000
   270  H          0.26988800       0.98655100       0.97377000
   271  H          0.76988800       0.51344900       0.47377000
   272  H          0.73011200       0.01344900       0.02623000
   273  C          0.21481300       0.40164100       0.91863000
   274  C          0.28518700       0.90164100       0.58137000
   275  C          0.78518700       0.59835900       0.08137000
   276  C          0.71481300       0.09835900       0.41863000
   277  H          0.33321300       0.38674100       0.93523000
   278  H          0.16678700       0.88674100       0.56477000
   279  H          0.66678700       0.61325900       0.06477000
   280  H          0.83321300       0.11325900       0.43523000
   281  C         -0.02808500       0.44130110       0.93842000
   282  C          0.52808500       0.94130110       0.56158000
   283  C          0.02808500       0.55869890       0.06158000
   284  C          0.47191500       0.05869890       0.43842000
   285  H          0.91791500       0.45480110       0.96942000
   286  H          0.58208500       0.95480110       0.53058000
   287  H          0.08208500       0.54519890       0.03058000
   288  H          0.41791500       0.04519890       0.46942000
