data_OGIQAZ
_symmetry_space_group_name_H-M    'P1'
_symmetry_Int_Tables_number       1
loop_
_symmetry_equiv_pos_site_id
_symmetry_equiv_pos_as_xyz
1 x,y,z
_cell_length_a                   11.65094
_cell_length_b                   11.71063
_cell_length_c                   18.91169
_cell_angle_alpha                90.0
_cell_angle_beta                 98.7963
_cell_angle_gamma                90.0
loop_
_atom_site_label
_atom_site_type_symbol
_atom_site_fract_x
_atom_site_fract_y
_atom_site_fract_z
     1  S          0.81937900       0.59736100       0.66589700
     2  S          0.18062100       0.09736100       0.33410300
     3  S          0.94316890       0.37699100       0.67075700
     4  S          0.05683110       0.87699100       0.32924300
     5  S          0.97616900       0.69130100       0.54955700
     6  S          0.02383100       0.19130100       0.45044300
     7  S          0.09381110       0.46676100       0.55224700
     8  S          0.90618890       0.96676100       0.44775300
     9  S          0.26088900       0.63375900       0.38718600
    10  S          0.73911100       0.13375900       0.61281400
    11  P          0.53787900       0.61707900       0.16416600
    12  P          0.46212100       0.11707900       0.83583400
    13  N          0.41324000       0.90423000       0.14982000
    14  N          0.58676000       0.40423000       0.85018000
    15  N          0.68383000       0.34043000       0.18062000
    16  N          0.31617000       0.84043000       0.81938000
    17  C          0.78856000       0.49594000       0.72683000
    18  C          0.21144000      -0.00406000       0.27317000
    19  H          0.73351800       0.51104900       0.75781000
    20  H          0.26648200       0.01104900       0.24219000
    21  C          0.84386000       0.39604000       0.72913000
    22  C          0.15614000       0.89604000       0.27087000
    23  H          0.82938000       0.33756700       0.76142000
    24  H          0.17062000       0.83756700       0.23858000
    25  C          0.92596000       0.51494000       0.63423000
    26  C          0.07404000       0.01494000       0.36577000
    27  C         -0.01084000       0.55264000       0.58483000
    28  C          0.01084000       0.05264000       0.41517000
    29  C          0.07514000       0.66874000       0.49123000
    30  C          0.92486000       0.16874000       0.50877000
    31  H          0.08996700       0.72733300       0.45905800
    32  H          0.91003300       0.22733300       0.54094200
    33  C          0.12994000       0.56984000       0.49152000
    34  C          0.87006000       0.06984000       0.50848000
    35  C          0.21794000       0.53784000       0.44842000
    36  C          0.78206000       0.03784000       0.55158000
    37  C          0.27884000       0.43864000       0.44753000
    38  C          0.72116000       0.93864000       0.55247000
    39  H          0.26788500       0.37489700       0.47689400
    40  H          0.73211500       0.87489700       0.52310600
    41  C          0.35994000       0.43914000       0.39892000
    42  C          0.64006000       0.93914000       0.60108000
    43  H          0.40838400       0.37582600       0.39265700
    44  H          0.59161600       0.87582600       0.60734300
    45  C          0.36204000       0.53944000       0.36162000
    46  C          0.63796000       0.03944000       0.63838000
    47  C          0.42844000       0.56904000       0.30482000
    48  C          0.57156000       0.06904000       0.69518000
    49  C          0.41344000       0.67594000       0.27092000
    50  C          0.58656000       0.17594000       0.72908000
    51  H          0.36569200       0.72962800       0.29040600
    52  H          0.63430800       0.22962800       0.70959400
    53  C          0.46174000       0.71063000       0.21162000
    54  C          0.53826000       0.21063000       0.78838000
    55  C          0.55784000       0.50003000       0.22223000
    56  C          0.44216000       0.00003000       0.77777000
    57  C          0.50384000       0.48944000       0.28203000
    58  C          0.49616000      -0.01056000       0.71797000
    59  H          0.51931700       0.42215900       0.30991300
    60  H          0.48068300       0.92215900       0.69008700
    61  C          0.43354000       0.81944000       0.17913000
    62  C          0.56646000       0.31944000       0.82087000
    63  C          0.62874000       0.40994000       0.20143000
    64  C          0.37126000       0.90994000       0.79857000
    65  C          0.67293000       0.67574000       0.14602000
    66  C          0.32707000       0.17574000       0.85398000
    67  C          0.72264000       0.76964000       0.18373000
    68  C          0.27736000       0.26964000       0.81627000
    69  H          0.68293900       0.80706300       0.21743600
    70  H          0.31706100       0.30706300       0.78256400
    71  C          0.82994000       0.80804000       0.17183000
    72  C          0.17006000       0.30804000       0.82817000
    73  H          0.86360000       0.87299300       0.19692700
    74  H          0.13640000       0.37299300       0.80307300
    75  C          0.88824000       0.75324000       0.12423000
    76  C          0.11176000       0.25324000       0.87577000
    77  H          0.96228600       0.78002400       0.11663000
    78  H          0.03771400       0.28002400       0.88337000
    79  C          0.83984000       0.65904000       0.08703000
    80  C          0.16016000       0.15904000       0.91297000
    81  H          0.88088600       0.62085200       0.05426900
    82  H          0.11911400       0.12085200       0.94573100
    83  C          0.73274000       0.62064000       0.09743000
    84  C          0.26726000       0.12064000       0.90257000
    85  H          0.69900900       0.55636700       0.07144700
    86  H          0.30099100       0.05636700       0.92855300
    87  C          0.46103000       0.58053000       0.07742000
    88  C          0.53897000       0.08053000       0.92258000
    89  C          0.44964000       0.66094000       0.02303000
    90  C          0.55036000       0.16094000       0.97697000
    91  H          0.48658700       0.73303200       0.03107300
    92  H          0.51341300       0.23303200       0.96892700
    93  C          0.38484000       0.63734000       0.95697000
    94  C          0.61516000       0.13734000       0.04303000
    95  H          0.37494200       0.69367100       0.92048400
    96  H          0.62505800       0.19367100       0.07951600
    97  C          0.33404000       0.52964000       0.94467000
    98  C          0.66596000       0.02964000       0.05533000
    99  H          0.29061600       0.51219000       0.89926200
   100  H          0.70938400       0.01219000       0.10073800
   101  C          0.34644000       0.44904000      -0.00213000
   102  C          0.65356000       0.94904000       0.00213000
   103  H          0.31235800       0.37573700       0.98873700
   104  H          0.68764200       0.87573700       0.01126300
   105  C          0.40844000       0.47304000       0.06553000
   106  C          0.59156000       0.97304000       0.93447000
   107  H          0.41480500       0.41769100       0.10260000
   108  H          0.58519500       0.91769100       0.89740000
   109  S          0.38607120       0.45113110       0.67564800
   110  S          0.61392880       0.95113110       0.32435200
   111  S          0.37623100       0.68562100       0.61747700
   112  S          0.62376900       0.18562100       0.38252300
   113  S          0.56585110       0.37696100       0.57749700
   114  S          0.43414890       0.87696100       0.42250300
   115  S          0.56868100       0.60805100       0.51458700
   116  S          0.43131900       0.10805100       0.48541300
   117  S          0.81498110       0.42991100       0.40169700
   118  S          0.18501890       0.92991100       0.59830300
   119  P          0.05988900       0.38042100       0.16504600
   120  P          0.94011100       0.88042100       0.83495400
   121  N          0.19423000       0.66393000       0.14963000
   122  N          0.80577000       0.16393000       0.85037000
   123  N          0.92844000       0.09634000       0.19212000
   124  N          0.07156000       0.59634000       0.80788000
   125  C          0.30875000       0.55225000       0.71523000
   126  C          0.69125000       0.05225000       0.28477000
   127  H          0.26994200       0.53282100       0.75421300
   128  H          0.73005800       0.03282100       0.24578700
   129  C          0.30494000       0.65755000       0.68943000
   130  C          0.69506000       0.15755000       0.31057000
   131  H          0.26418800       0.71609900       0.70989700
   132  H          0.73581200       0.21609900       0.29010300
   133  C          0.51574000       0.51844000       0.57583000
   134  C          0.48426000       0.01844000       0.42417000
   135  C          0.43774000       0.54914000       0.61753000
   136  C          0.56226000       0.04914000       0.38247000
   137  C          0.66064000       0.40184000       0.51772000
   138  C          0.33936000       0.90184000       0.48228000
   139  H          0.71032800       0.34276600       0.50599400
   140  H          0.28967200       0.84276600       0.49400600
   141  C          0.66344000       0.50534000       0.48772000
   142  C          0.33656000       0.00534000       0.51228000
   143  C          0.73354000       0.53564000       0.43433000
   144  C          0.26646000       0.03564000       0.56567000
   145  C          0.74994000       0.63644000       0.40133000
   146  C          0.25006000       0.13644000       0.59867000
   147  H          0.71384400       0.70535400       0.41255600
   148  H          0.28615600       0.20535400       0.58744400
   149  C          0.82414000       0.63104000       0.34933000
   150  C          0.17586000       0.13104000       0.65067000
   151  H          0.84218100       0.69469400       0.32196100
   152  H          0.15781900       0.19469400       0.67803900
   153  C          0.86784000       0.52224000       0.34253000
   154  C          0.13216000       0.02224000       0.65747000
   155  C          0.93894000       0.47624000       0.29173000
   156  C          0.06106000       0.97624000       0.70827000
   157  C          0.01064000       0.54754000       0.25943000
   158  C         -0.01064000       0.04754000       0.74057000
   159  H          0.01634400       0.62483400       0.27457100
   160  H          0.98365600       0.12483400       0.72542900
   161  C          0.07434000       0.51524000       0.20703000
   162  C          0.92566000       0.01524000       0.79297000
   163  C          0.97674000       0.30654000       0.21972000
   164  C          0.02326000       0.80654000       0.78028000
   165  C          0.93084000       0.36014000       0.27362000
   166  C          0.06916000       0.86014000       0.72638000
   167  H          0.88899900       0.31323700       0.30179500
   168  H          0.11100100       0.81323700       0.69820500
   169  C          0.14244000       0.59714000       0.17603000
   170  C          0.85756000       0.09714000       0.82397000
   171  C          0.95274000       0.18934000       0.20532000
   172  C          0.04726000       0.68934000       0.79468000
   173  C          0.19544000       0.30874000       0.16243000
   174  C          0.80456000       0.80874000       0.83757000
   175  C          0.27654000       0.30914000       0.22523000
   176  C          0.72346000       0.80914000       0.77477000
   177  H          0.26399000       0.35495000       0.26481100
   178  H          0.73601000       0.85495000       0.73518900
   179  C          0.37594000       0.24144000       0.22913000
   180  C          0.62406000       0.74144000       0.77087000
   181  H          0.42990000       0.23858700       0.27215400
   182  H          0.57010000       0.73858700       0.72784600
   183  C          0.31554000       0.17774000       0.10803000
   184  C          0.68446000       0.67774000       0.89197000
   185  H          0.32929200       0.13384400       0.06791300
   186  H          0.67070800       0.63384400       0.93208700
   187  C          0.39564000       0.17884000       0.17063000
   188  C          0.60436000       0.67884000       0.82937000
   189  H          0.46512700       0.13566000       0.17297600
   190  H          0.53487300       0.63566000       0.82702400
   191  C          0.21474000       0.24224000       0.10543000
   192  C          0.78526000       0.74224000       0.89457000
   193  H          0.15821400       0.24033500       0.06346900
   194  H          0.84178600       0.74033500       0.93653100
   195  C         -0.01007000       0.39314000       0.07442000
   196  C          0.01007000       0.89314000       0.92558000
   197  C          0.04384000       0.45384000       0.02543000
   198  C          0.95616000       0.95384000       0.97457000
   199  H          0.12106200       0.48062900       0.03876300
   200  H          0.87893800       0.98062900       0.96123700
   201  C          0.98575000       0.47524000       0.95737000
   202  C          0.01425000       0.97524000       0.04263000
   203  H          0.02265800       0.51693700       0.92417000
   204  H          0.97734200       0.01693700       0.07583000
   205  C          0.87404000       0.43574000       0.93797000
   206  C          0.12596000       0.93574000       0.06203000
   207  H          0.83412400       0.45050600       0.89124900
   208  H          0.16587600       0.95050600       0.10875100
   209  C          0.81954000       0.37504000       0.98557000
   210  C          0.18046000       0.87504000       0.01443000
   211  H          0.74253100       0.34780000       0.97152100
   212  H          0.25746900       0.84780000       0.02847900
   213  C          0.87654000       0.35344000       0.05413000
   214  C          0.12346000       0.85344000       0.94587000
   215  H          0.83878500       0.31180300       0.08709500
   216  H          0.16121500       0.81180300       0.91290500
