data_OGIWOS02
_symmetry_space_group_name_H-M    'P1'
_symmetry_Int_Tables_number       1
loop_
_symmetry_equiv_pos_site_id
_symmetry_equiv_pos_as_xyz
1 x,y,z
_cell_length_a                   6.0682
_cell_length_b                   8.7192
_cell_length_c                   20.27301
_cell_angle_alpha                90.0
_cell_angle_beta                 90.0
_cell_angle_gamma                90.0
loop_
_atom_site_label
_atom_site_type_symbol
_atom_site_fract_x
_atom_site_fract_y
_atom_site_fract_z
     1  I          0.51689400       0.35613300       0.33387200
     2  I         -0.01689400       0.64386700       0.83387200
     3  I          0.48310600       0.85613300       0.16612800
     4  I          0.01689400       0.14386700       0.66612800
     5  O          0.48256000       0.60054000       0.45921170
     6  O          0.01744000       0.39946000       0.95921170
     7  O          0.51744000       0.10054000       0.04078830
     8  O         -0.01744000       0.89946000       0.54078830
     9  O          0.97296000       0.22554000       0.40773180
    10  O          0.52704000       0.77446000       0.90773180
    11  O          0.02704000       0.72554000       0.09226820
    12  O          0.47296000       0.27446000       0.59226820
    13  N          0.70815000       0.41254000       0.41799190
    14  N          0.79185000       0.58746000       0.91799190
    15  N          0.29185000       0.91254000       0.08200810
    16  N          0.20815000       0.08746000       0.58200810
    17  C          0.89787000       0.33606000       0.43652000
    18  C          0.60213000       0.66394000       0.93652000
    19  C          0.10213000       0.83606000       0.06348000
    20  C          0.39787000       0.16394000       0.56348000
    21  C         -0.01112000       0.41086000       0.49662000
    22  C          0.51112000       0.58914000      -0.00338000
    23  C          0.01112000       0.91086000       0.00338000
    24  C          0.48888000       0.08914000       0.50338000
    25  H          0.12990000       0.45840000       0.48720000
    26  H          0.37010000       0.54160000       0.98720000
    27  H          0.87010000       0.95840000       0.01280000
    28  H          0.62990000       0.04160000       0.51280000
    29  H          0.00820000       0.33660000       0.53170000
    30  H          0.49180000       0.66340000       0.03170000
    31  H         -0.00820000       0.83660000       0.96830000
    32  H          0.50820000       0.16340000       0.46830000
    33  C          0.64778000       0.52285000       0.46332000
    34  C          0.85222000       0.47715000       0.96332000
    35  C          0.35222000       0.02285000       0.03668000
    36  C          0.14778000       0.97715000       0.53668000
    37  C          0.82008000       0.53036000       0.51573000
    38  C          0.67992000       0.46964000       0.01573000
    39  C          0.17992000       0.03036000       0.98427000
    40  C          0.32008000       0.96964000       0.48427000
    41  H          0.75720000       0.50730000       0.55860000
    42  H          0.74280000       0.49270000       0.05860000
    43  H          0.24280000       0.00730000       0.94140000
    44  H          0.25720000      -0.00730000       0.44140000
    45  H          0.88630000       0.63140000       0.51720000
    46  H          0.61370000       0.36860000       0.01720000
    47  H          0.11370000       0.13140000       0.98280000
    48  H          0.38630000       0.86860000       0.48280000
    49  N          0.27937000       0.29495000       0.23952000
    50  N          0.22063000       0.70505000       0.73952000
    51  N          0.72063000       0.79495000       0.26048000
    52  N          0.77937000       0.20505000       0.76048000
    53  C         -0.01671200       0.23657000       0.14003000
    54  C          0.51671200       0.76343000       0.64003000
    55  C          0.01671200       0.73657000       0.35997000
    56  C          0.48328800       0.26343000       0.85997000
    57  H          0.88390000       0.21560000       0.10630000
    58  H          0.61610000       0.78440000       0.60630000
    59  H          0.11610000       0.71560000       0.39370000
    60  H          0.38390000       0.28440000       0.89370000
    61  C          0.95928900       0.17007000       0.20123000
    62  C          0.54071100       0.82993000       0.70123000
    63  C          0.04071100       0.67007000       0.29877000
    64  C          0.45928900       0.32993000       0.79877000
    65  H          0.84110000       0.10520000       0.21000000
    66  H          0.65890000       0.89480000       0.71000000
    67  H          0.15890000       0.60520000       0.29000000
    68  H          0.34110000       0.39480000       0.79000000
    69  C          0.30199000       0.35807000       0.18153000
    70  C          0.19801000       0.64193000       0.68153000
    71  C          0.69801000       0.85807000       0.31847000
    72  C          0.80199000       0.14193000       0.81847000
    73  H          0.42150000       0.42260000       0.17430000
    74  H          0.07850000       0.57740000       0.67430000
    75  H          0.57850000       0.92260000       0.32570000
    76  H          0.92150000       0.07740000       0.82570000
    77  C          0.15491100       0.33298000       0.13013000
    78  C          0.34508900       0.66702000       0.63013000
    79  C          0.84508900       0.83298000       0.36987000
    80  C          0.65491100       0.16702000       0.86987000
    81  H          0.17410000       0.38140000       0.08960000
    82  H          0.32590000       0.61860000       0.58960000
    83  H          0.82590000       0.88140000       0.41040000
    84  H          0.67410000       0.11860000       0.91040000
    85  C          0.11251000       0.20097000       0.24883000
    86  C          0.38749000       0.79903000       0.74883000
    87  C          0.88749000       0.70097000       0.25117000
    88  C          0.61251000       0.29903000       0.75117000
    89  H          0.09810000       0.15340000       0.28970000
    90  H          0.40190000       0.84660000       0.78970000
    91  H          0.90190000       0.65340000       0.21030000
    92  H          0.59810000       0.34660000       0.71030000
