data_OGULAH
_symmetry_space_group_name_H-M    'P1'
_symmetry_Int_Tables_number       1
loop_
_symmetry_equiv_pos_site_id
_symmetry_equiv_pos_as_xyz
1 x,y,z
_cell_length_a                   8.02603
_cell_length_b                   8.83484
_cell_length_c                   11.23795
_cell_angle_alpha                109.490816
_cell_angle_beta                 92.053317
_cell_angle_gamma                92.300416
loop_
_atom_site_label
_atom_site_type_symbol
_atom_site_fract_x
_atom_site_fract_y
_atom_site_fract_z
     1  S          0.30634800       0.14715900       0.45777700
     2  S          0.69365200       0.85284100       0.54222300
     3  Cl         0.24665100       0.52134900      -0.01153800
     4  Cl         0.75334900       0.47865100       0.01153800
     5  C          0.96328000      -0.00563000       0.30112000
     6  C          0.03672000       0.00563000       0.69888000
     7  C          0.11483000       0.77347000       0.15942000
     8  C          0.88517000       0.22653000       0.84058000
     9  H          0.01286500       0.73272800       0.11628400
    10  H         -0.01286500       0.26727200       0.88371600
    11  C          0.12182000       0.91487000       0.26409190
    12  C          0.87818000       0.08513000       0.73590810
    13  C          0.42023000       0.89017000       0.28363000
    14  C          0.57977000       0.10983000       0.71637000
    15  H          0.52335100       0.92946800       0.32506000
    16  H          0.47664900       0.07053200       0.67494000
    17  O          0.83311830       0.93458000       0.23925150
    18  O          0.16688170       0.06542000       0.76074850
    19  C          0.41073000       0.75287000       0.18243000
    20  C          0.58927000       0.24713000       0.81757000
    21  H          0.50644000       0.69830900       0.15501300
    22  H          0.49356000       0.30169100       0.84498700
    23  C          0.96427000       0.14283000       0.41112000
    24  C          0.03573000       0.85717000       0.58888000
    25  C          0.27673000       0.97457000       0.32722000
    26  C          0.72327000       0.02543000       0.67278000
    27  C          0.81137000       0.21443000       0.44292000
    28  C          0.18863000       0.78557000       0.55708000
    29  H          0.71532100       0.16838900       0.39308800
    30  H          0.28467900       0.83161100       0.60691200
    31  C          0.25703000       0.69437000       0.11992000
    32  C          0.74297000       0.30563000       0.88008000
    33  C          0.94285000       0.41983000       0.62053000
    34  C          0.05715000       0.58017000       0.37947000
    35  H          0.93569800       0.51127000       0.69108100
    36  H          0.06430200       0.48873000       0.30891900
    37  C          0.10713000       0.21563000       0.48622000
    38  C          0.89287000       0.78437000       0.51378000
    39  C          0.80096000       0.35123000       0.54613000
    40  C          0.19904000       0.64877000       0.45387000
    41  H          0.69884900       0.39720900       0.56553900
    42  H          0.30115100       0.60279100       0.43446100
    43  C          0.09424000       0.35453000       0.59163000
    44  C          0.90576000       0.64547000       0.40837000
    45  H          0.18905600       0.40254000       0.64213600
    46  H          0.81094400       0.59746000       0.35786400
    47  C          0.49778000       0.85343000       0.90212000
    48  C          0.50222000       0.14657000       0.09788000
    49  C          0.64928000       0.93053000       0.96202000
    50  C          0.35072000       0.06947000       0.03798000
    51  C          0.80518000       0.85773000       0.92042000
    52  C          0.19482000       0.14227000       0.07958000
    53  N          0.92738000       0.80223000       0.88672000
    54  N          0.07262000       0.19777000       0.11328000
    55  C          0.49497000       0.70133000       0.80103000
    56  C          0.50503000       0.29867000       0.19897000
    57  C          0.34828000       0.92383000       0.94062000
    58  C          0.65172000       0.07617000       0.05938000
    59  H          0.24738200       0.87330000       0.90120100
    60  H          0.75261800       0.12670000       0.09879900
    61  N          0.49137000       0.58103000       0.72053000
    62  N          0.50863000       0.41897000       0.27947000
