data_OHAGUA
_symmetry_space_group_name_H-M    'P1'
_symmetry_Int_Tables_number       1
loop_
_symmetry_equiv_pos_site_id
_symmetry_equiv_pos_as_xyz
1 x,y,z
_cell_length_a                   7.99517
_cell_length_b                   9.54849
_cell_length_c                   14.701711
_cell_angle_alpha                81.9104
_cell_angle_beta                 84.8624
_cell_angle_gamma                73.6464
loop_
_atom_site_label
_atom_site_type_symbol
_atom_site_fract_x
_atom_site_fract_y
_atom_site_fract_z
     1  S          0.50354900       0.09760700       0.86255400
     2  S          0.49645100       0.90239300       0.13744600
     3  S          0.07357800       0.41754700       0.81120400
     4  S          0.92642200       0.58245300       0.18879600
     5  O          0.88482000       0.24602000       0.01625120
     6  O          0.11518000       0.75398000       0.98374880
     7  O          0.82093000       0.07592000       0.12681130
     8  O          0.17907000       0.92408000       0.87318870
     9  O          0.41802000       0.39112000       0.05018120
    10  O          0.58198000       0.60888000       0.94981880
    11  O          0.22382000       0.27801190       0.12455120
    12  O          0.77618000       0.72198810       0.87544880
    13  N          0.71163000       0.10052000      -0.00894850
    14  N          0.28837000       0.89948000       0.00894850
    15  H          0.66430000       0.03230000       0.02031900
    16  H          0.33570000       0.96770000       0.97968100
    17  N          0.70543000       0.27622000       0.86402140
    18  N          0.29457000       0.72378000       0.13597860
    19  H          0.79730000       0.29530000       0.88461900
    20  H          0.20270000       0.70470000       0.11538100
    21  N          0.36463000       0.45622000       0.86985150
    22  N          0.63537000       0.54378000       0.13014850
    23  H          0.42430000       0.45230000       0.91751500
    24  H          0.57570000       0.54770000       0.08248500
    25  N          0.17683000       0.37682000       0.98030150
    26  N          0.82317000       0.62318000       0.01969850
    27  H          0.08230000       0.34530000      -0.00858100
    28  H          0.91770000       0.65470000       0.00858100
    29  C          0.93474000       0.10884000       0.18802000
    30  C          0.06526000       0.89116000       0.81198000
    31  H          0.93120000       0.04940000       0.24780000
    32  H          0.06880000       0.95060000       0.75220000
    33  H          0.89500000       0.21330000       0.19610000
    34  H          0.10500000       0.78670000       0.80390000
    35  H          0.05460000       0.08570000       0.16110000
    36  H          0.94540000       0.91430000       0.83890000
    37  C          0.81353000       0.15023000       0.04294190
    38  C          0.18647000       0.84977000       0.95705810
    39  C          0.64793000       0.16443000       0.90640180
    40  C          0.35207000       0.83557000       0.09359820
    41  C          0.63443000       0.36243000       0.78137180
    42  C          0.36557000       0.63757000       0.21862820
    43  C          0.73694000       0.36003000       0.70000180
    44  C          0.26306000       0.63997000       0.29999820
    45  H          0.85350000       0.29900000       0.69880000
    46  H          0.14650000       0.70100000       0.30120000
    47  C          0.67034000       0.44583000       0.62064190
    48  C          0.32966000       0.55417000       0.37935810
    49  H          0.74090000       0.44360000       0.56500000
    50  H          0.25910000       0.55640000       0.43500000
    51  C          0.49994000       0.53523000       0.62244180
    52  C          0.50006000       0.46477000       0.37755820
    53  H          0.45390000       0.59380000       0.56790000
    54  H          0.54610000       0.40620000       0.43210000
    55  C          0.39624000       0.53953000       0.70411180
    56  C          0.60376000       0.46047000       0.29588820
    57  H          0.28000000       0.60120000       0.70500000
    58  H          0.72000000       0.39880000       0.29500000
    59  C          0.46213000       0.45403000       0.78363170
    60  C          0.53787000       0.54597000       0.21636830
    61  C          0.21433000       0.41813000       0.88808180
    62  C          0.78567000       0.58187000       0.11191820
    63  C          0.28483000       0.35223000       0.05214180
    64  C          0.71517000       0.64777000       0.94785820
    65  C          0.31704000       0.25773000       0.20781180
    66  C          0.68296000       0.74227000       0.79218820
    67  H          0.26370000       0.20140000       0.25720000
    68  H          0.73630000       0.79860000       0.74280000
    69  H          0.31100000       0.35390000       0.22610000
    70  H          0.68900000       0.64610000       0.77390000
    71  H          0.43940000       0.20400000       0.19640000
    72  H          0.56060000       0.79600000       0.80360000
    73  C          0.22074000       0.05143000       0.49100190
    74  C          0.77926000       0.94857000       0.50899810
    75  C          0.32714000       0.96727000       0.55952000
    76  C          0.67286000       0.03273000       0.44048000
    77  H          0.37650000       0.86490000       0.55710000
    78  H          0.62350000       0.13510000       0.44290000
    79  C          0.36124000       0.03283000       0.63162000
    80  C          0.63876000       0.96717000       0.36838000
    81  H          0.43300000       0.97480000       0.67880000
    82  H          0.56700000       0.02520000       0.32120000
    83  C          0.29134000       0.18204000       0.63502000
    84  C          0.70866000       0.81796000       0.36498000
    85  H          0.31660000       0.22680000       0.68390000
    86  H          0.68340000       0.77320000       0.31610000
    87  C          0.18464000       0.26603000       0.56688190
    88  C          0.81536000       0.73397000       0.43311810
    89  H          0.13560000       0.36830000       0.56950000
    90  H          0.86440000       0.63170000       0.43050000
    91  C          0.14893000       0.20113000       0.49496180
    92  C          0.85107000       0.79887000       0.50503820
    93  Cl         0.18385100       0.96757200       0.40043500
    94  Cl         0.81614900       0.03242800       0.59956500
    95  Cl         0.01405900       0.30943800       0.41076500
    96  Cl         0.98594100       0.69056200       0.58923500
