data_OHIQUS
_symmetry_space_group_name_H-M    'P1'
_symmetry_Int_Tables_number       1
loop_
_symmetry_equiv_pos_site_id
_symmetry_equiv_pos_as_xyz
1 x,y,z
_cell_length_a                   8.1082
_cell_length_b                   10.1982
_cell_length_c                   10.4592
_cell_angle_alpha                110.261
_cell_angle_beta                 111.232
_cell_angle_gamma                97.601
loop_
_atom_site_label
_atom_site_type_symbol
_atom_site_fract_x
_atom_site_fract_y
_atom_site_fract_z
     1  O          0.43924150       0.13753120       0.42951130
     2  O          0.56075850       0.86246880       0.57048870
     3  O          0.08954140       0.13114110       0.37762110
     4  O          0.91045860       0.86885890       0.62237890
     5  O          0.93278860       0.30867120       0.26927120
     6  O          0.06721140       0.69132880       0.73072880
     7  O          0.49848140       0.50190120       0.24681120
     8  O          0.50151860       0.49809880       0.75318880
     9  C          0.47342000       0.32536160       0.33893160
    10  C          0.52658000       0.67463840       0.66106840
    11  H          0.60120000       0.32720000       0.35121900
    12  H          0.39880000       0.67280000       0.64878100
    13  C          0.37372000       0.23281160       0.37439160
    14  C          0.62628000       0.76718840       0.62560840
    15  C          0.19252000       0.23002160       0.35072160
    16  C          0.80748000       0.76997840       0.64927840
    17  C          0.11284190       0.32092150       0.29218160
    18  C          0.88715810       0.67907850       0.70781840
    19  C          0.21092000       0.41615160       0.25654160
    20  C          0.78908000       0.58384840       0.74345840
    21  H          0.15320000       0.48320000       0.21841900
    22  H          0.84680000       0.51680000       0.78158100
    23  C          0.38987190       0.41503160       0.27980160
    24  C          0.61012810       0.58496840       0.72019840
    25  C          0.62402000       0.13612000       0.45282000
    26  C          0.37598000       0.86388000       0.54718000
    27  H          0.71530000       0.23530000       0.52820000
    28  H          0.28470000       0.76470000       0.47180000
    29  H          0.64930000       0.06320000       0.49520000
    30  H          0.35070000       0.93680000       0.50480000
    31  H          0.64030000       0.10820000       0.35930000
    32  H          0.35970000       0.89180000       0.64070000
    33  C          0.09613000       0.19272000       0.52582000
    34  C          0.90387000       0.80728000       0.47418000
    35  H          0.05830000       0.28430000       0.53930000
    36  H          0.94170000       0.71570000       0.46070000
    37  H          0.00730000       0.12030000       0.53030000
    38  H         -0.00730000       0.87970000       0.46970000
    39  H          0.22030000       0.20930000       0.60130000
    40  H          0.77970000       0.79070000       0.39870000
    41  C          0.84278000       0.39143190       0.19622000
    42  C          0.15722000       0.60856810       0.80378000
    43  H          0.84470000       0.36820000       0.09420000
    44  H          0.15530000       0.63180000       0.90580000
    45  H          0.71570000       0.36320000       0.18020000
    46  H          0.28430000       0.63680000       0.81980000
    47  H          0.90070000       0.49630000       0.26020000
    48  H          0.09930000       0.50370000       0.73980000
    49  C          0.41502000       0.58472000       0.17092000
    50  C          0.58498000       0.41528000       0.82908000
    51  H          0.38430000       0.66330000       0.23930000
    52  H          0.61570000       0.33670000       0.76070000
    53  H          0.50930000       0.62920000       0.14620000
    54  H          0.49070000       0.37080000       0.85380000
    55  H          0.30330000       0.51920000       0.07320000
    56  H          0.69670000       0.48080000       0.92680000
    57  C          0.15591190       0.95072850       0.04044150
    58  C          0.84408810       0.04927150       0.95955850
    59  H          0.26620000       0.91348200       0.06971900
    60  H          0.73380000       0.08651800       0.93028100
    61  C          0.14767180       0.04657150       0.97236850
    62  C          0.85232820       0.95342850       0.02763150
    63  C         -0.00727190       0.09693150       0.93280850
    64  C          0.00727190       0.90306850       0.06719150
    65  C          0.29952000       0.09232160       0.94059830
    66  C          0.70048000       0.90767840       0.05940170
    67  C         -0.01347190       0.19988160       0.86624840
    68  C          0.01347190       0.80011840       0.13375160
    69  N          0.41991180       0.12620150       0.91458840
    70  N          0.58008820       0.87379850       0.08541160
    71  N         -0.01765190       0.28513150       0.81804850
    72  N          0.01765190       0.71486850       0.18195150
