data_OHOVUD
_symmetry_space_group_name_H-M    'P1'
_symmetry_Int_Tables_number       1
loop_
_symmetry_equiv_pos_site_id
_symmetry_equiv_pos_as_xyz
1 x,y,z
_cell_length_a                   9.102512
_cell_length_b                   13.9512
_cell_length_c                   21.6713
_cell_angle_alpha                90.0
_cell_angle_beta                 94.892
_cell_angle_gamma                90.0
loop_
_atom_site_label
_atom_site_type_symbol
_atom_site_fract_x
_atom_site_fract_y
_atom_site_fract_z
     1  Cl         0.10256300       0.04271200       0.23774214
     2  Cl         0.89743700       0.54271200       0.26225786
     3  Cl         0.89743700       0.95728800       0.76225786
     4  Cl         0.10256300       0.45728800       0.73774214
     5  I          0.28893090       0.02268460       0.35669540
     6  I          0.71106910       0.52268460       0.14330460
     7  I          0.71106910       0.97731540       0.64330460
     8  I          0.28893090       0.47731540       0.85669540
     9  F          0.38378900       0.17280600       0.46531400
    10  F          0.61621100       0.67280600       0.03468600
    11  F          0.61621100       0.82719400       0.53468600
    12  F          0.38378900       0.32719400       0.96531400
    13  F          0.45087900       0.84320400       0.42685400
    14  F          0.54912100       0.34320400       0.07314600
    15  F          0.54912100       0.15679600       0.57314600
    16  F          0.45087900       0.65679600       0.92685400
    17  C          0.41386140       0.00881900       0.44278600
    18  C          0.58613860       0.50881900       0.05721400
    19  C          0.58613860      -0.00881900       0.55721400
    20  C          0.41386140       0.49118100       0.94278600
    21  C          0.44138140       0.08677900       0.48154600
    22  C          0.55861860       0.58677900       0.01845400
    23  C          0.55861860       0.91322100       0.51845400
    24  C          0.44138140       0.41322100       0.98154600
    25  C          0.47396140       0.92165100       0.46283600
    26  C          0.52603860       0.42165100       0.03716400
    27  C          0.52603860       0.07834900       0.53716400
    28  C          0.47396140       0.57834900       0.96283600
    29  I          0.29758090       0.00076160       0.13093440
    30  I          0.70241910       0.50076160       0.36906560
    31  I          0.70241910      -0.00076160       0.86906560
    32  I          0.29758090       0.49923840       0.63093440
    33  F          0.42045100       0.16793600       0.05072400
    34  F          0.57954900       0.66793600       0.44927600
    35  F          0.57954900       0.83206400       0.94927600
    36  F          0.42045100       0.33206400       0.55072400
    37  F          0.42825100       0.82975400       0.05015400
    38  F          0.57174900       0.32975400       0.44984600
    39  F          0.57174900       0.17024600       0.94984600
    40  F          0.42825100       0.67024600       0.55015400
    41  C          0.42025150      -0.00122900       0.05328600
    42  C          0.57974850       0.49877100       0.44671400
    43  C          0.57974850       0.00122900       0.94671400
    44  C          0.42025150       0.50122900       0.55328600
    45  C          0.45890150       0.08408900       0.02594600
    46  C          0.54109850       0.58408900       0.47405400
    47  C          0.54109850       0.91591100       0.97405400
    48  C          0.45890150       0.41591100       0.52594600
    49  C          0.46328140       0.91466100       0.02608600
    50  C          0.53671860       0.41466100       0.47391400
    51  C          0.53671860       0.08533900       0.97391400
    52  C          0.46328140       0.58533900       0.52608600
    53  N          0.77720110       0.84297200       0.29657500
    54  N          0.22279890       0.34297200       0.20342500
    55  N          0.22279890       0.15702800       0.70342500
    56  N          0.77720110       0.65702800       0.79657500
    57  C          0.73697150       0.91067900       0.34744600
    58  C          0.26302850       0.41067900       0.15255400
    59  C          0.26302850       0.08932100       0.65255400
    60  C          0.73697150       0.58932100       0.84744600
    61  H          0.71541800       0.87128700       0.38148000
    62  H          0.28458200       0.37128700       0.11852000
    63  H          0.28458200       0.12871300       0.61852000
    64  H          0.71541800       0.62871300       0.88148000
    65  H          0.64731800       0.94118800       0.33178000
    66  H          0.35268200       0.44118800       0.16822000
    67  H          0.35268200       0.05881200       0.66822000
    68  H          0.64731800       0.55881200       0.83178000
    69  C          0.85350160       0.98525900       0.36762700
    70  C          0.14649840       0.48525900       0.13237300
    71  C          0.14649840       0.01474100       0.63237300
    72  C          0.85350160       0.51474100       0.86762700
    73  H          0.94420000       0.95148600       0.38488000
    74  H          0.05580000       0.45148600       0.11512000
    75  H          0.05580000       0.04851400       0.61512000
    76  H          0.94420000       0.54851400       0.88488000
    77  H          0.88120000       0.02661300       0.33359000
    78  H          0.11880000       0.52661300       0.16641000
    79  H          0.11880000       0.97338700       0.66641000
    80  H          0.88120000       0.47338700       0.83359000
    81  C          0.79692190       0.05174130       0.41610900
    82  C          0.20307810       0.55174130       0.08389100
    83  C          0.20307810       0.94825870       0.58389100
    84  C          0.79692190       0.44825870       0.91610900
    85  H          0.77220000       0.01401400       0.44871000
    86  H          0.22780000       0.51401400       0.05129000
    87  H          0.22780000       0.98598600       0.55129000
    88  H          0.77220000       0.48598600       0.94871000
    89  H          0.70630000       0.08421800       0.39731100
    90  H          0.29370000       0.58421800       0.10268900
    91  H          0.29370000       0.91578200       0.60268900
    92  H          0.70630000       0.41578200       0.89731100
    93  C          0.91372000       0.12319150       0.44119110
    94  C          0.08628000       0.62319150       0.05880890
    95  C          0.08628000       0.87680850       0.55880890
    96  C          0.91372000       0.37680850       0.94119110
    97  H          0.87630000       0.16561800       0.46971100
    98  H          0.12370000       0.66561800       0.03028900
    99  H          0.12370000       0.83438200       0.53028900
   100  H          0.87630000       0.33438200       0.96971100
   101  H          0.95030000       0.16181800       0.40841200
   102  H          0.04970000       0.66181800       0.09158800
   103  H          0.04970000       0.83818200       0.59158800
   104  H          0.95030000       0.33818200       0.90841200
   105  H          0.00130000       0.09111700       0.45841000
   106  H         -0.00130000       0.59111700       0.04159000
   107  H         -0.00130000       0.90888300       0.54159000
   108  H          0.00130000       0.40888300       0.95841000
   109  C          0.78195140       0.90006100       0.23697600
   110  C          0.21804860       0.40006100       0.26302400
   111  C          0.21804860       0.09993900       0.76302400
   112  C          0.78195140       0.59993900       0.73697600
   113  H          0.85161900       0.95148700       0.24578000
   114  H          0.14838100       0.45148700       0.25422000
   115  H          0.14838100       0.04851300       0.75422000
   116  H          0.85161900       0.54851300       0.74578000
   117  H          0.68581800       0.92688800       0.22917000
   118  H          0.31418200       0.42688800       0.27083000
   119  H          0.31418200       0.07311200       0.77083000
   120  H          0.68581800       0.57311200       0.72917000
   121  C          0.82368160       0.84424900       0.18099600
   122  C          0.17631840       0.34424900       0.31900400
   123  C          0.17631840       0.15575100       0.81900400
   124  C          0.82368160       0.65575100       0.68099600
   125  H          0.76051900       0.78798700       0.17168000
   126  H          0.23948100       0.28798700       0.32832000
   127  H          0.23948100       0.21201300       0.82832000
   128  H          0.76051900       0.71201300       0.67168000
   129  H          0.92520000       0.82148600       0.18868000
   130  H          0.07480000       0.32148600       0.31132000
   131  H          0.07480000       0.17851400       0.81132000
   132  H          0.92520000       0.67851400       0.68868000
   133  C          0.81307170       0.91150890       0.12516600
   134  C          0.18692830       0.41150890       0.37483400
   135  C          0.18692830       0.08849110       0.87483400
   136  C          0.81307170       0.58849110       0.62516600
   137  H          0.71020000       0.93218600       0.11788000
   138  H          0.28980000       0.43218600       0.38212000
   139  H          0.28980000       0.06781400       0.88212000
   140  H          0.71020000       0.56781400       0.61788000
   141  H          0.86820000       0.96778500       0.13541000
   142  H          0.13180000       0.46778500       0.36459000
   143  H          0.13180000       0.03221500       0.86459000
   144  H          0.86820000       0.53221500       0.63541000
   145  C          0.86852180       0.86598880       0.06784700
   146  C          0.13147820       0.36598880       0.43215300
   147  C          0.13147820       0.13401120       0.93215300
   148  C          0.86852180       0.63401120       0.56784700
   149  H          0.85820000       0.90598600       0.03248000
   150  H          0.14180000       0.40598600       0.46752000
   151  H          0.14180000       0.09401400       0.96752000
   152  H          0.85820000       0.59401400       0.53248000
   153  H          0.81620000       0.80718400       0.05519000
   154  H          0.18380000       0.30718400       0.44481000
   155  H          0.18380000       0.19281600       0.94481000
   156  H          0.81620000       0.69281600       0.55519000
   157  H          0.97320000       0.85188700       0.07478000
   158  H          0.02680000       0.35188700       0.42522000
   159  H          0.02680000       0.14811300       0.92522000
   160  H          0.97320000       0.64811300       0.57478000
   161  C          0.66293140       0.76263100       0.28921600
   162  C          0.33706860       0.26263100       0.21078400
   163  C          0.33706860       0.23736900       0.71078400
   164  C          0.66293140       0.73736900       0.78921600
   165  H          0.70211700       0.71218800       0.26597000
   166  H          0.29788300       0.21218800       0.23403000
   167  H          0.29788300       0.28781200       0.73403000
   168  H          0.70211700       0.78781200       0.76597000
   169  H          0.65331600       0.73788900       0.33087000
   170  H          0.34668400       0.23788900       0.16913000
   171  H          0.34668400       0.26211100       0.66913000
   172  H          0.65331600       0.76211100       0.83087000
   173  C          0.51278140       0.79138900       0.25847700
   174  C          0.48721860       0.29138900       0.24152300
   175  C          0.48721860       0.20861100       0.74152300
   176  C          0.51278140       0.70861100       0.75847700
   177  H          0.51820000       0.80918700       0.21669000
   178  H          0.48180000       0.30918700       0.28331000
   179  H          0.48180000       0.19081300       0.78331000
   180  H          0.51820000       0.69081300       0.71669000
   181  H          0.47241900       0.84508700       0.27938000
   182  H          0.52758100       0.34508700       0.22062000
   183  H          0.52758100       0.15491300       0.72062000
   184  H          0.47241900       0.65491300       0.77938000
   185  C          0.40461150       0.70784890       0.26006700
   186  C          0.59538850       0.20784890       0.23993300
   187  C          0.59538850       0.29215110       0.73993300
   188  C          0.40461150       0.79215110       0.76006700
   189  H          0.39320000       0.69198600       0.30319000
   190  H          0.60680000       0.19198600       0.19681000
   191  H          0.60680000       0.30801400       0.69681000
   192  H          0.39320000       0.80801400       0.80319000
   193  H          0.44331900       0.65178700       0.24248000
   194  H          0.55668100       0.15178700       0.25752000
   195  H          0.55668100       0.34821300       0.75752000
   196  H          0.44331900       0.84821300       0.74248000
   197  C          0.25657160       0.73201880       0.22528800
   198  C          0.74342840       0.23201880       0.27471200
   199  C          0.74342840       0.26798120       0.77471200
   200  C          0.25657160       0.76798120       0.72528800
   201  H          0.18520000       0.68058600       0.22758000
   202  H          0.81480000       0.18058600       0.27242000
   203  H          0.81480000       0.31941400       0.77242000
   204  H          0.18520000       0.81941400       0.72758000
   205  H          0.26401900       0.74368600       0.18159000
   206  H          0.73598100       0.24368600       0.31841000
   207  H          0.73598100       0.25631400       0.81841000
   208  H          0.26401900       0.75631400       0.68159000
   209  H          0.21220000       0.79038500       0.24159000
   210  H          0.78780000       0.29038500       0.25841000
   211  H          0.78780000       0.20961500       0.75841000
   212  H          0.21220000       0.70961500       0.74159000
   213  C          0.92880140       0.79855100       0.31276600
   214  C          0.07119860       0.29855100       0.18723400
   215  C          0.07119860       0.20144900       0.68723400
   216  C          0.92880140       0.70144900       0.81276600
   217  H          0.94251600       0.75298900       0.28217000
   218  H          0.05748400       0.25298900       0.21783000
   219  H          0.05748400       0.24701100       0.71783000
   220  H          0.94251600       0.74701100       0.78217000
   221  H         -0.00138300       0.85138800       0.31047000
   222  H          0.00138300       0.35138800       0.18953000
   223  H          0.00138300       0.14861200       0.68953000
   224  H         -0.00138300       0.64861200       0.81047000
   225  C          0.94961150       0.74864900       0.37517600
   226  C          0.05038850       0.24864900       0.12482400
   227  C          0.05038850       0.25135100       0.62482400
   228  C          0.94961150       0.75135100       0.87517600
   229  H          0.87821900       0.70158700       0.37918000
   230  H          0.12178100       0.20158700       0.12082000
   231  H          0.12178100       0.29841300       0.62082000
   232  H          0.87821900       0.79841300       0.87918000
   233  H          0.93931800       0.79078800       0.40898000
   234  H          0.06068200       0.29078800       0.09102000
   235  H          0.06068200       0.20921200       0.59102000
   236  H          0.93931800       0.70921200       0.90898000
   237  C          0.10263150       0.70258890       0.38235700
   238  C          0.89736850       0.20258890       0.11764300
   239  C          0.89736850       0.29741110       0.61764300
   240  C          0.10263150       0.79741110       0.88235700
   241  H          0.11111800       0.66268800       0.34808000
   242  H          0.88888200       0.16268800       0.15192000
   243  H          0.88888200       0.33731200       0.65192000
   244  H          0.11111800       0.83731200       0.84808000
   245  H          0.17571800       0.74958700       0.37928000
   246  H          0.82428200       0.24958700       0.12072000
   247  H          0.82428200       0.25041300       0.62072000
   248  H          0.17571800       0.75041300       0.87928000
   249  C          0.12622000       0.64401880       0.44154700
   250  C          0.87378000       0.14401880       0.05845300
   251  C          0.87378000       0.35598120       0.55845300
   252  C          0.12622000       0.85598120       0.94154700
   253  H          0.22220000       0.61328600       0.44429000
   254  H          0.77780000       0.11328600       0.05571000
   255  H          0.77780000       0.38671400       0.55571000
   256  H          0.22220000       0.88671400       0.94429000
   257  H          0.05120000       0.59858500       0.44139000
   258  H          0.94880000       0.09858500       0.05861000
   259  H          0.94880000       0.40141500       0.55861000
   260  H          0.05120000       0.90141500       0.94139000
   261  H          0.12820000       0.68438600       0.47589000
   262  H          0.87180000       0.18438600       0.02411000
   263  H          0.87180000       0.31561400       0.52411000
   264  H          0.12820000       0.81561400       0.97589000
