data_OHUJUA
_symmetry_space_group_name_H-M    'P1'
_symmetry_Int_Tables_number       1
loop_
_symmetry_equiv_pos_site_id
_symmetry_equiv_pos_as_xyz
1 x,y,z
_cell_length_a                   9.638012
_cell_length_b                   13.372719
_cell_length_c                   16.2322
_cell_angle_alpha                92.2166
_cell_angle_beta                 90.8186
_cell_angle_gamma                102.7596
loop_
_atom_site_label
_atom_site_type_symbol
_atom_site_fract_x
_atom_site_fract_y
_atom_site_fract_z
     1  S          0.60659800       0.45847600       0.33956500
     2  S          0.39340200       0.54152400       0.66043500
     3  O          0.22242000       0.65533190       0.10406140
     4  O          0.77758000       0.34466810       0.89593860
     5  O          0.27353000       0.62542000       0.23405150
     6  O          0.72647000       0.37458000       0.76594850
     7  N          0.60303000       0.26572000       0.14562160
     8  N          0.39697000       0.73428000       0.85437840
     9  N          0.57603000       0.25962000       0.32928160
    10  N          0.42397000       0.74038000       0.67071840
    11  O          0.39293000       0.84472000       0.14362000
    12  O          0.60707000       0.15528000       0.85638000
    13  C          0.55243000       0.33382000       0.19621190
    14  C          0.44757000       0.66618000       0.80378810
    15  C          0.57423000       0.33902000       0.28492180
    16  C          0.42577000       0.66098000       0.71507820
    17  C          0.48063000       0.39032000       0.14609190
    18  C          0.51937000       0.60968000       0.85390810
    19  C          0.60023000       0.29003000       0.41166190
    20  C          0.39977000       0.70997000       0.58833810
    21  C          0.40633000       0.46792000       0.17354190
    22  C          0.59367000       0.53208000       0.82645810
    23  H          0.40042800       0.47892800       0.23018800
    24  H          0.59957200       0.52107200       0.76981200
    25  C          0.27863000       0.60373000       0.16142000
    26  C          0.72137000       0.39627000       0.83858000
    27  C          0.34523000       0.52542000       0.12514190
    28  C          0.65477000       0.47458000       0.87485810
    29  H          0.34528400       0.51525200       0.06813500
    30  H          0.65471600       0.48474800       0.93186500
    31  C          0.61833000       0.39573000       0.42998190
    32  C          0.38167000       0.60427000       0.57001810
    33  C          0.63913000       0.43673000       0.51082000
    34  C          0.36087000       0.56327000       0.48918000
    35  H          0.65082900       0.50675400       0.52222800
    36  H          0.34917100       0.49324600       0.47777200
    37  C          0.49073000       0.35323000       0.06362000
    38  C          0.50927000       0.64677000       0.93638000
    39  H          0.45262300       0.37597700       0.01669300
    40  H          0.54737700       0.62402300       0.98330700
    41  C          0.24284000       0.88463000       0.24782000
    42  C          0.75716000       0.11537000       0.75218000
    43  C          0.68904000       0.19373000       0.16992000
    44  C          0.31096000       0.80627000       0.83008000
    45  H          0.75994000       0.22673300       0.21015400
    46  H          0.24006000       0.77326700       0.78984600
    47  H          0.73460900       0.17197400       0.12234600
    48  H          0.26539100       0.82802600       0.87765400
    49  H          0.62881700       0.13499900       0.19309700
    50  H          0.37118300       0.86500100       0.80690300
    51  C          0.56584000       0.27883000       0.06562000
    52  C          0.43416000       0.72117000       0.93438000
    53  H          0.58860500       0.24222500       0.01972700
    54  H          0.41139500       0.75777500       0.98027300
    55  C          0.27644000       0.82393000       0.17552000
    56  C          0.72356000       0.17607000       0.82448000
    57  C          0.60304000       0.22353000       0.47612000
    58  C          0.39696000       0.77647000       0.52388000
    59  H          0.59096900       0.15327100       0.46530500
    60  H          0.40903100       0.84672900       0.53469500
    61  C          0.16204000       0.73583000       0.13802000
    62  C          0.83796000       0.26417000       0.86198000
    63  H          0.09529800       0.70886500       0.18009900
    64  H          0.90470200       0.29113500       0.81990100
    65  H          0.10999900       0.76141600       0.09491400
    66  H          0.89000100       0.23858400       0.90508600
    67  C          0.64184000       0.36953000       0.57322000
    68  C          0.35816000       0.63047000       0.42678000
    69  H          0.65554400       0.39479600       0.62755700
    70  H          0.34445600       0.60520400       0.37244300
    71  C          0.62404000       0.26433000       0.55592000
    72  C          0.37596000       0.73567000       0.44408000
    73  H          0.62644400       0.22078200       0.59896600
    74  H          0.37355600       0.77921800       0.40103400
    75  C          0.13924000       0.84513000       0.30363000
    76  C          0.86076000       0.15487000       0.69637000
    77  H          0.08281500       0.77947200       0.29426400
    78  H          0.91718500       0.22052800       0.70573600
    79  C          0.20055000       0.00173000       0.38693000
    80  C          0.79945000      -0.00173000       0.61307000
    81  H          0.18577100       0.04040500       0.43348100
    82  H          0.81422900       0.95959500       0.56651900
    83  C          0.32514000       0.98393000       0.26273000
    84  C          0.67486000       0.01607000       0.73727000
    85  H          0.39557300       0.01115900       0.22618000
    86  H          0.60442700      -0.01115900       0.77382000
    87  C          0.30215000       0.04193000       0.33203000
    88  C          0.69785000       0.95807000       0.66797000
    89  H          0.35598500       0.10830800       0.34101400
    90  H          0.64401500       0.89169200       0.65898600
    91  C          0.11975000       0.90283000       0.37273000
    92  C          0.88025000       0.09717000       0.62727000
    93  H          0.05140800       0.87517200       0.41033900
    94  H          0.94859200       0.12482800       0.58966100
    95  S          0.95390800       0.38180700       0.34339500
    96  S          0.04609200       0.61819300       0.65660500
    97  O          0.69582000       0.64451180       0.12067140
    98  O          0.30418000       0.35548820       0.87932860
    99  O          0.83403000       0.65521190       0.23393140
   100  O          0.16597000       0.34478810       0.76606860
   101  N          0.17503000       0.30222000       0.32069160
   102  N          0.82497000       0.69778000       0.67930840
   103  N          0.11283000       0.27242000       0.13891160
   104  N          0.88717000       0.72758000       0.86108840
   105  O          0.86203000       0.83582000       0.11698170
   106  O          0.13797000       0.16418000       0.88301830
   107  C          0.07793000       0.33722000       0.28090180
   108  C          0.92207000       0.66278000       0.71909820
   109  C          0.15713000       0.31022000       0.40516190
   110  C          0.84287000       0.68978000       0.59483810
   111  C          0.79263000       0.61272000       0.16777190
   112  C          0.20737000       0.38728000       0.83222810
   113  C          0.83923000       0.52452000       0.13079190
   114  C          0.16077000       0.47548000       0.86920810
   115  H          0.80531400       0.49778800       0.07874800
   116  H          0.19468600       0.50221200       0.92125200
   117  C          0.93083000       0.48272000       0.17251190
   118  C          0.06917000       0.51728000       0.82748810
   119  H          0.95746700       0.51038000       0.22532900
   120  H          0.04253300       0.48962000       0.77467100
   121  C         -0.00687000       0.39892000       0.14416180
   122  C          0.00687000       0.60108000       0.85583820
   123  C          0.06193000       0.33852000       0.19166180
   124  C          0.93807000       0.66148000       0.80833820
   125  C          0.04243000       0.35302000       0.42966190
   126  C          0.95757000       0.64698000       0.57033810
   127  C          0.76693000       0.90243000       0.23452000
   128  C          0.23307000       0.09757000       0.76548000
   129  C          0.01474000       0.36953000       0.51242000
   130  C         -0.01474000       0.63047000       0.48758000
   131  H          0.93906800       0.39830500       0.52794800
   132  H          0.06093200       0.60169500       0.47205200
   133  C          0.24273000       0.28043000       0.46532000
   134  C          0.75727000       0.71957000       0.53468000
   135  H          0.31733500       0.25019400       0.45032400
   136  H          0.68266500       0.74980600       0.54967600
   137  C          0.00364000       0.36653000       0.06052000
   138  C         -0.00364000       0.63347000       0.93948000
   139  H          0.96689300       0.39231600       0.01462000
   140  H          0.03310700       0.60768400       0.98538000
   141  C          0.76724000       0.82483000       0.16692000
   142  C          0.23276000       0.17517000       0.83308000
   143  C          0.07774000       0.29053000       0.06002000
   144  C          0.92226000       0.70947000       0.93998000
   145  H          0.10068200       0.25621900       0.01298300
   146  H          0.89931800       0.74378100       0.98701700
   147  C          0.21504000       0.29663000       0.54722000
   148  C          0.78496000       0.70337000       0.45278000
   149  H          0.27191600       0.27717200       0.58769600
   150  H          0.72808400       0.72282800       0.41230400
   151  C          0.18514000       0.19103000       0.15972000
   152  C          0.81486000       0.80897000       0.84028000
   153  H          0.19420900       0.15050400       0.11077000
   154  H          0.80579100       0.84949600       0.88923000
   155  H          0.13064200       0.14807700       0.19922000
   156  H          0.86935800       0.85192300       0.80078000
   157  H          0.27792700       0.22103200       0.18275600
   158  H          0.72207300       0.77896800       0.81724400
   159  C          0.10344000       0.34153000       0.57062000
   160  C          0.89656000       0.65847000       0.42938000
   161  H          0.08827400       0.35284300       0.62631200
   162  H          0.91172600       0.64715700       0.37368800
   163  C          0.64744000       0.72903000       0.15842000
   164  C          0.35256000       0.27097000       0.84158000
   165  H          0.61125800       0.71058900       0.21254000
   166  H          0.38874200       0.28941100       0.78746000
   167  H          0.57015700       0.74330600       0.12527000
   168  H          0.42984300       0.25669400       0.87473000
   169  C          0.66394000       0.89233000       0.29393000
   170  C          0.33606000       0.10767000       0.70607000
   171  H          0.58750800       0.83585900       0.29093700
   172  H          0.41249200       0.16414100       0.70906300
   173  C          0.88845000       0.06113000       0.30403000
   174  C          0.11155000       0.93887000       0.69597000
   175  H          0.96410300       0.11806700       0.30679900
   176  H          0.03589700       0.88193300       0.69320100
   177  C          0.78634000       0.04943000       0.36323000
   178  C          0.21366000       0.95057000       0.63677000
   179  H          0.79315800       0.09767100       0.40675000
   180  H          0.20684200       0.90232900       0.59325000
   181  C          0.87854000       0.98773000       0.24003000
   182  C          0.12146000       0.01227000       0.75997000
   183  H          0.94794600      -0.00393600       0.20008400
   184  H          0.05205400       0.00393600       0.79991600
   185  C          0.67335000       0.96524000       0.35743000
   186  C          0.32665000       0.03476000       0.64257000
   187  H          0.60299200       0.95754200       0.39675400
   188  H          0.39700800       0.04245800       0.60324600
   189  N          0.18811000       0.95735000       0.00674000
   190  N          0.81189000       0.04265000      -0.00674000
