data_OHULIQ
_symmetry_space_group_name_H-M    'P1'
_symmetry_Int_Tables_number       1
loop_
_symmetry_equiv_pos_site_id
_symmetry_equiv_pos_as_xyz
1 x,y,z
_cell_length_a                   11.78803
_cell_length_b                   9.16172
_cell_length_c                   15.44494
_cell_angle_alpha                90.0
_cell_angle_beta                 98.8512
_cell_angle_gamma                90.0
loop_
_atom_site_label
_atom_site_type_symbol
_atom_site_fract_x
_atom_site_fract_y
_atom_site_fract_z
     1  S          0.27922600       0.09478700       0.52153400
     2  S          0.22077400       0.59478700       0.97846600
     3  S          0.72077400       0.90521300       0.47846600
     4  S          0.77922600       0.40521300       0.02153400
     5  S          0.95786400       0.47077700       0.36149400
     6  S          0.54213600       0.97077700       0.13850600
     7  S          0.04213600       0.52922300       0.63850600
     8  S          0.45786400       0.02922300       0.86149400
     9  Cl         0.82118400       0.18642800       0.26693400
    10  Cl         0.67881600       0.68642800       0.23306600
    11  Cl         0.17881600       0.81357200       0.73306600
    12  Cl         0.32118400       0.31357200       0.76693400
    13  O          0.26461170       0.07842000       0.61137130
    14  O          0.23538830       0.57842000       0.88862870
    15  O          0.73538830       0.92158000       0.38862870
    16  O          0.76461170       0.42158000       0.11137130
    17  O          0.35924180       0.20242000       0.50049130
    18  O          0.14075820       0.70242000      -0.00049130
    19  O          0.64075820       0.79758000       0.49950870
    20  O          0.85924180       0.29758000       0.00049130
    21  O          0.04954190       0.56062000       0.40512140
    22  O          0.45045810       0.06062000       0.09487860
    23  O          0.95045810       0.43938000       0.59487860
    24  O          0.54954190       0.93938000       0.90512140
    25  O          0.84550810       0.48452000       0.38413140
    26  O          0.65449190       0.98452000       0.11586860
    27  O          0.15449190       0.51548000       0.61586860
    28  O          0.34550810       0.01548000       0.88413140
    29  N          0.12402000       0.85937000       0.43505160
    30  N          0.37598000       0.35937000       0.06494840
    31  N          0.87598000       0.14063000       0.56494840
    32  N          0.62402000       0.64063000       0.93505160
    33  N          0.94878000       0.50523000       0.25833170
    34  N          0.55122000       0.00523000       0.24166830
    35  N          0.05122000       0.49477000       0.74166830
    36  N          0.44878000      -0.00523000       0.75833170
    37  N          0.31822000       0.93637000       0.48750170
    38  N          0.18178000       0.43637000       0.01249830
    39  N          0.68178000       0.06363000       0.51249830
    40  N          0.81822000       0.56363000       0.98750170
    41  C          0.08542000      -0.00153000       0.41844170
    42  C          0.41458000       0.49847000       0.08155830
    43  C          0.91458000       0.00153000       0.58155830
    44  C          0.58542000       0.50153000       0.91844170
    45  C          0.94528000       0.16503000       0.34170170
    46  C          0.55472000       0.66503000       0.15829830
    47  C          0.05472000       0.83497000       0.65829830
    48  C          0.44528000       0.33497000       0.84170170
    49  C          0.14692000       0.12243000       0.45564170
    50  C          0.35308000       0.62243000       0.04435830
    51  C          0.85308000       0.87757000       0.54435830
    52  C          0.64692000       0.37757000       0.95564170
    53  C          0.10742000       0.26383000       0.43684170
    54  C          0.39258000       0.76383000       0.06315830
    55  C          0.89258000       0.73617000       0.56315830
    56  C          0.60742000       0.23617000       0.93684170
    57  H          0.15028900       0.34449500       0.46301700
    58  H          0.34971100       0.84449500       0.03698300
    59  H          0.84971100       0.65550500       0.53698300
    60  H          0.65028900       0.15550500       0.96301700
    61  C          0.98348000       0.02473000       0.36056180
    62  C          0.51652000       0.52473000       0.13943820
    63  C          0.01652000       0.97527000       0.63943820
    64  C          0.48348000       0.47527000       0.86056180
    65  H          0.94030700       0.94457700       0.33399400
    66  H          0.55969300       0.44457700       0.16600600
    67  H          0.05969300       0.05542300       0.66600600
    68  H          0.44030700       0.55542300       0.83399400
    69  C          0.00632000       0.28793000       0.38043180
    70  C          0.49368000       0.78793000       0.11956820
    71  C         -0.00632000       0.71207000       0.61956820
    72  C          0.50632000       0.21207000       0.88043180
    73  C          0.23052000       0.82407000       0.49146190
    74  C          0.26948000       0.32407000       0.00853810
    75  C          0.76948000       0.17593000       0.50853810
    76  C          0.73052000       0.67593000      -0.00853810
    77  H          0.25934000       0.72909300       0.47344400
    78  H          0.24066000       0.22909300       0.02655600
    79  H          0.74066000       0.27090700       0.52655600
    80  H          0.75934000       0.77090700       0.97344400
    81  H          0.21575400       0.81450100       0.55260400
    82  H          0.28424600       0.31450100       0.94739600
    83  H          0.78424600       0.18549900       0.44739600
    84  H          0.71575400       0.68549900       0.05260400
    85  H          0.01130000       0.48830000       0.23920000
    86  H          0.48870000      -0.01170000       0.26080000
    87  H         -0.01130000       0.51170000       0.76080000
    88  H          0.51130000       0.01170000       0.73920000
    89  H          0.33030000       0.94860000       0.43530000
    90  H          0.16970000       0.44860000       0.06470000
    91  H          0.66970000       0.05140000       0.56470000
    92  H          0.83030000       0.55140000       0.93530000
    93  H          0.88670000       0.46440000       0.22520000
    94  H          0.61330000       0.96440000       0.27480000
    95  H          0.11330000       0.53560000       0.77480000
    96  H          0.38670000       0.03560000       0.72520000
    97  H          0.08740000       0.79350000       0.41730000
    98  H          0.41260000       0.29350000       0.08270000
    99  H          0.91260000       0.20650000       0.58270000
   100  H          0.58740000       0.70650000       0.91730000
   101  F          0.93393850       0.93001820       0.07880120
   102  F          0.56606150       0.43001820       0.42119880
   103  F          0.06606150       0.06998180       0.92119880
   104  F          0.43393850       0.56998180       0.57880120
   105  O          0.33053170       0.94218000       0.29902120
   106  O          0.16946830       0.44218000       0.20097880
   107  O          0.66946830       0.05782000       0.70097880
   108  O          0.83053170       0.55782000       0.79902120
   109  N          0.18732000       0.06622000       0.21496150
   110  N          0.31268000       0.56622000       0.28503850
   111  N          0.81268000       0.93378000       0.78503850
   112  N          0.68732000       0.43378000       0.71496150
   113  N          0.18422000       0.81078000       0.22265150
   114  N          0.31578000       0.31078000       0.27734850
   115  N          0.81578000       0.18922000       0.77734850
   116  N          0.68422000       0.68922000       0.72265150
   117  H          0.21679600       0.72910300       0.24365400
   118  H          0.28320400       0.22910300       0.25634600
   119  H          0.78320400       0.27089700       0.75634600
   120  H          0.71679600       0.77089700       0.74365400
   121  N          0.04162000       0.18993000       0.13062160
   122  N          0.45838000       0.68993000       0.36937840
   123  N          0.95838000       0.81007000       0.86937840
   124  N          0.54162000       0.31007000       0.63062160
   125  H          0.07655400       0.27258400       0.14688400
   126  H          0.42344600       0.77258400       0.35311600
   127  H          0.92344600       0.72741600       0.85311600
   128  H          0.57655400       0.22741600       0.64688400
   129  H          0.97604600       0.19076800       0.09460300
   130  H          0.52395400       0.69076800       0.40539700
   131  H          0.02395400       0.80923200       0.90539700
   132  H          0.47604600       0.30923200       0.59460300
   133  C          0.23682000       0.94087000       0.24694180
   134  C          0.26318000       0.44087000       0.25305820
   135  C          0.76318000       0.05913000       0.75305820
   136  C          0.73682000       0.55913000       0.74694180
   137  C          0.08322000       0.80417000       0.16708180
   138  C          0.41678000       0.30417000       0.33291820
   139  C          0.91678000       0.19583000       0.83291820
   140  C          0.58322000       0.69583000       0.66708180
   141  H          0.04815900       0.71270900       0.15124900
   142  H          0.45184100       0.21270900       0.34875100
   143  H          0.95184100       0.28729100       0.84875100
   144  H          0.54815900       0.78729100       0.65124900
   145  C          0.03362000       0.92877000       0.13478180
   146  C          0.46638000       0.42877000       0.36521820
   147  C          0.96638000       0.07123000       0.86521820
   148  C          0.53362000       0.57123000       0.63478180
   149  C          0.08762000       0.06453000       0.16029180
   150  C          0.41238000       0.56453000       0.33970820
   151  C          0.91238000       0.93547000       0.83970820
   152  C          0.58762000       0.43547000       0.66029180
