data_OJEGOC
_symmetry_space_group_name_H-M    'P1'
_symmetry_Int_Tables_number       1
loop_
_symmetry_equiv_pos_site_id
_symmetry_equiv_pos_as_xyz
1 x,y,z
_cell_length_a                   5.82202
_cell_length_b                   8.35154
_cell_length_c                   50.7402
_cell_angle_alpha                90.0
_cell_angle_beta                 90.0
_cell_angle_gamma                90.0
loop_
_atom_site_label
_atom_site_type_symbol
_atom_site_fract_x
_atom_site_fract_y
_atom_site_fract_z
     1  I          0.20852000       0.69515170       0.36050200
     2  I          0.29148000       0.30484830       0.86050200
     3  I          0.79148000       0.19515170       0.13949800
     4  I          0.70852000       0.80484830       0.63949800
     5  I          0.08823000       0.53470170       0.47575200
     6  I          0.41177000       0.46529830       0.97575200
     7  I          0.91177000       0.03470170       0.02424800
     8  I          0.58823000       0.96529830       0.52424800
     9  F          0.72480000       0.86251600       0.37412000
    10  F          0.77520000       0.13748400       0.87412000
    11  F          0.27520000       0.36251600       0.12588000
    12  F          0.22480000       0.63748400       0.62588000
    13  F          0.62280000       0.73681800       0.46202000
    14  F          0.87720000       0.26318200       0.96202000
    15  F          0.37720000       0.23681800       0.03798000
    16  F          0.12280000       0.76318200       0.53798000
    17  F          0.27520000       0.54621700       0.41742000
    18  F          0.22480000       0.45378300       0.91742000
    19  F          0.72480000       0.04621700       0.08258000
    20  F          0.77520000       0.95378300       0.58258000
    21  F          0.48180000       0.88211600       0.41822000
    22  F          0.01820000       0.11788400       0.91822000
    23  F          0.51820000       0.38211600       0.08178000
    24  F         -0.01820000       0.61788400       0.58178000
    25  C          0.95660000       0.64020000       0.44093000
    26  C          0.54340000       0.35980000       0.94093000
    27  C          0.04340000       0.14020000       0.05907000
    28  C          0.45660000       0.85980000       0.55907000
    29  C          0.08630000       0.62751900       0.41784000
    30  C          0.41370000       0.37248100       0.91784000
    31  C          0.91370000       0.12751900       0.08216000
    32  C          0.58630000       0.87248100       0.58216000
    33  C          0.00730000       0.70320000       0.39523000
    34  C          0.49270000       0.29680000       0.89523000
    35  C         -0.00730000       0.20320000       0.10477000
    36  C          0.50730000       0.79680000       0.60477000
    37  C          0.81170000       0.78220000       0.39534000
    38  C          0.68830000       0.21780000       0.89534000
    39  C          0.18830000       0.28220000       0.10466000
    40  C          0.31170000       0.71780000       0.60466000
    41  C          0.74980000       0.72020000       0.44083000
    42  C          0.75020000       0.27980000       0.94083000
    43  C          0.25020000       0.22020000       0.05917000
    44  C          0.24980000       0.77980000       0.55917000
    45  C          0.67470000       0.79630000       0.41754000
    46  C          0.82530000       0.20370000       0.91754000
    47  C          0.32530000       0.29630000       0.08246000
    48  C          0.17470000       0.70370000       0.58246000
    49  N          0.26730000       0.38520000       0.52183000
    50  N          0.23270000       0.61480000       0.02183000
    51  N          0.73270000       0.88520000       0.97817000
    52  N          0.76730000       0.11480000       0.47817000
    53  C          0.12530000       0.28930000       0.53514000
    54  C          0.37470000       0.71070000       0.03514000
    55  C          0.87470000       0.78930000       0.96486000
    56  C          0.62530000       0.21070000       0.46486000
    57  H          0.00468000       0.24132500       0.52600200
    58  H          0.49532000       0.75867500       0.02600200
    59  H         -0.00468000       0.74132500       0.97399800
    60  H          0.50468000       0.25867500       0.47399800
    61  C          0.25430000       0.12920000       0.64384000
    62  C          0.24570000       0.87080000       0.14384000
    63  C          0.74570000       0.62920000       0.85616000
    64  C          0.75430000       0.37080000       0.35616000
    65  H          0.15229900       0.05979400       0.65228100
    66  H          0.34770100       0.94020600       0.15228100
    67  H          0.84770100       0.55979400       0.84771900
    68  H          0.65229900       0.44020600       0.34771900
    69  C          0.58030000       0.30420000       0.64453000
    70  C          0.91970000       0.69580000       0.14453000
    71  C          0.41970000       0.80420000       0.85547000
    72  C          0.08030000       0.19580000       0.35547000
    73  C          0.42530000       0.20220000       0.65663000
    74  C          0.07470000       0.79780000       0.15663000
    75  C          0.57470000       0.70220000       0.84337000
    76  C          0.92530000       0.29780000       0.34337000
    77  C          0.68930000       0.28820000       0.68923000
    78  C          0.81070000       0.71180000       0.18923000
    79  C          0.31070000       0.78820000       0.81077000
    80  C          0.18930000       0.21180000       0.31077000
    81  C          0.37830000       0.26120000       0.60333000
    82  C          0.12170000       0.73880000       0.10333000
    83  C          0.62170000       0.76120000       0.89667000
    84  C          0.87830000       0.23880000       0.39667000
    85  C          0.56330000       0.33420000       0.61744000
    86  C          0.93670000       0.66580000       0.11744000
    87  C          0.43670000       0.83420000       0.88256000
    88  C          0.06330000       0.16580000       0.38256000
    89  H          0.66967300       0.39835700       0.60879300
    90  H          0.83032700       0.60164300       0.10879300
    91  H          0.33032700       0.89835700       0.89120700
    92  H          0.16967300       0.10164300       0.39120700
    93  C          0.79140000       0.29720000       0.71373000
    94  C          0.70860000       0.70280000       0.21373000
    95  C          0.20860000       0.79720000       0.78627000
    96  C          0.29140000       0.20280000       0.28627000
    97  H          0.92634400       0.35510100       0.71566300
    98  H          0.57365600       0.64489900       0.21566300
    99  H          0.07365600       0.85510100       0.78433700
   100  H          0.42634400       0.14489900       0.28433700
   101  C          0.23840000       0.16220000       0.61714000
   102  C          0.26160000       0.83780000       0.11714000
   103  C          0.76160000       0.66220000       0.88286000
   104  C          0.73840000       0.33780000       0.38286000
   105  H          0.11954800       0.11291700       0.60782200
   106  H          0.38045200       0.88708300       0.10782200
   107  H          0.88045200       0.61291700       0.89217800
   108  H          0.61954800       0.38708300       0.39217800
   109  N          0.00740000       0.26020000       0.81174000
   110  N          0.49260000       0.73980000       0.31174000
   111  N         -0.00740000       0.76020000       0.68826000
   112  N          0.50740000       0.23980000       0.18826000
   113  C          0.15030000       0.25720000       0.56174000
   114  C          0.34970000       0.74280000       0.06174000
   115  C          0.84970000       0.75720000       0.93826000
   116  C          0.65030000       0.24280000       0.43826000
   117  H          0.02984000       0.20791100       0.57074600
   118  H          0.47016000       0.79208900       0.07074600
   119  H          0.97016000       0.70791100       0.92925400
   120  H          0.52984000       0.29208900       0.42925400
   121  C          0.51230000       0.38620000       0.56034000
   122  C         -0.01230000       0.61380000       0.06034000
   123  C          0.48770000       0.88620000       0.93966000
   124  C          0.01230000       0.11380000       0.43966000
   125  H          0.64945600       0.41845400       0.56807000
   126  H          0.85054400       0.58154600       0.06807000
   127  H          0.35054400       0.91845400       0.93193000
   128  H          0.14945600       0.08154600       0.43193000
   129  C          0.69530000       0.22220000       0.73533000
   130  C          0.80470000       0.77780000       0.23533000
   131  C          0.30470000       0.72220000       0.76467000
   132  C          0.19530000       0.27780000       0.26467000
   133  C          0.46430000       0.42520000       0.53444000
   134  C          0.03570000       0.57480000       0.03444000
   135  C          0.53570000       0.92520000       0.96556000
   136  C          0.96430000       0.07480000       0.46556000
   137  H          0.57344100       0.48289000       0.52503400
   138  H          0.92655900       0.51711000       0.02503400
   139  H          0.42655900       0.98289000       0.97496600
   140  H          0.07344100       0.01711000       0.47496600
   141  C          0.76240000       0.36330000       0.66363000
   142  C          0.73760000       0.63670000       0.16363000
   143  C          0.23760000       0.86330000       0.83637000
   144  C          0.26240000       0.13670000       0.33637000
   145  H          0.91382600       0.32626200       0.65834800
   146  H          0.58617400       0.67373800       0.15834800
   147  H          0.08617400       0.82626200       0.84165200
   148  H          0.41382600       0.17373800       0.34165200
   149  H          0.76259800       0.47855600       0.66475600
   150  H          0.73740200       0.52144400       0.16475600
   151  H          0.23740200       0.97855600       0.83524400
   152  H          0.26259800       0.02144400       0.33524400
   153  C          0.49130000       0.19930000       0.68543000
   154  C          0.00870000       0.80070000       0.18543000
   155  C          0.50870000       0.69930000       0.81457000
   156  C         -0.00870000       0.30070000       0.31457000
   157  C          0.34830000       0.29620000       0.57503000
   158  C          0.15170000       0.70380000       0.07503000
   159  C          0.65170000       0.79620000       0.92497000
   160  C          0.84830000       0.20380000       0.42497000
   161  C          0.09840000       0.32630000       0.79194000
   162  C          0.40160000       0.67370000       0.29194000
   163  C          0.90160000       0.82630000       0.70806000
   164  C          0.59840000       0.17370000       0.20806000
   165  H          0.23147000       0.38480400       0.79443000
   166  H          0.26853000       0.61519600       0.29443000
   167  H          0.76853000       0.88480400       0.70557000
   168  H          0.73147000       0.11519600       0.20557000
   169  C          0.80040000       0.23020000       0.76193000
   170  C          0.69960000       0.76980000       0.26193000
   171  C          0.19960000       0.73020000       0.73807000
   172  C          0.30040000       0.26980000       0.23807000
   173  C          0.39640000       0.11930000       0.70644000
   174  C          0.10360000       0.88070000       0.20644000
   175  C          0.60360000       0.61930000       0.79356000
   176  C          0.89640000       0.38070000       0.29356000
   177  H          0.26480800       0.05627500       0.70413500
   178  H          0.23519200       0.94372500       0.20413500
   179  H          0.73519200       0.55627500       0.79586500
   180  H          0.76480800       0.44372500       0.29586500
   181  C          0.71440000       0.15430000       0.78383000
   182  C          0.78560000       0.84570000       0.28383000
   183  C          0.28560000       0.65430000       0.71617000
   184  C          0.21440000       0.34570000       0.21617000
   185  H          0.58740300       0.08686100       0.78202400
   186  H          0.91259700       0.91313900       0.28202400
   187  H          0.41259700       0.58686100       0.71797600
   188  H          0.08740300       0.41313900       0.21797600
   189  C          0.00830000       0.31630000       0.76603000
   190  C          0.49170000       0.68370000       0.26603000
   191  C         -0.00830000       0.81630000       0.73397000
   192  C          0.50830000       0.18370000       0.23397000
   193  H          0.08402600       0.36516400       0.75197300
   194  H          0.41597400       0.63483600       0.25197300
   195  H          0.91597400       0.86516400       0.74802700
   196  H          0.58402600       0.13483600       0.24802700
   197  C          0.81250000       0.17440000       0.80844000
   198  C          0.68750000       0.82560000       0.30844000
   199  C          0.18750000       0.67440000       0.69156000
   200  C          0.31250000       0.32560000       0.19156000
   201  H          0.74303300       0.12662800       0.82294900
   202  H          0.75696700       0.87337200       0.32294900
   203  H          0.25696700       0.62662800       0.67705100
   204  H          0.24303300       0.37337200       0.17705100
   205  C          0.49940000       0.13230000       0.73134000
   206  C          0.00060000       0.86770000       0.23134000
   207  C          0.50060000       0.63230000       0.76866000
   208  C         -0.00060000       0.36770000       0.26866000
   209  H          0.43343400       0.07900800       0.74554600
   210  H          0.06656600       0.92099200       0.24554600
   211  H          0.56656600       0.57900800       0.75445400
   212  H          0.93343400       0.42099200       0.25445400
