data_OJIJUO
_symmetry_space_group_name_H-M    'P1'
_symmetry_Int_Tables_number       1
loop_
_symmetry_equiv_pos_site_id
_symmetry_equiv_pos_as_xyz
1 x,y,z
_cell_length_a                   9.01757
_cell_length_b                   10.12618
_cell_length_c                   13.246011
_cell_angle_alpha                76.5523
_cell_angle_beta                 77.6543
_cell_angle_gamma                69.3692
loop_
_atom_site_label
_atom_site_type_symbol
_atom_site_fract_x
_atom_site_fract_y
_atom_site_fract_z
     1  N          0.31222000       0.26182000       0.62395160
     2  N          0.68778000       0.73818000       0.37604840
     3  C          0.28773000       0.38792000       0.55449190
     4  C          0.71227000       0.61208000       0.44550810
     5  N          0.38232000       0.36892000       0.46420170
     6  N          0.61768000       0.63108000       0.53579830
     7  C          0.46853000       0.22523000       0.47542000
     8  C          0.53147000       0.77477000       0.52458000
     9  H          0.54500000       0.17960000       0.42230000
    10  H          0.45500000       0.82040000       0.57770000
    11  C          0.42823000       0.15823000       0.57322000
    12  C          0.57177000       0.84177000       0.42678000
    13  H          0.47120000       0.05950000       0.60120000
    14  H          0.52880000       0.94050000       0.39880000
    15  N          0.84967000       0.07042000       0.79724180
    16  N          0.15033000       0.92958000       0.20275820
    17  C          0.91757000       0.08253000       0.87292000
    18  C          0.08243000       0.91747000       0.12708000
    19  H          0.87690000       0.05230000       0.94350000
    20  H          0.12310000       0.94770000       0.05650000
    21  C          0.04333000       0.13623000       0.85512000
    22  C          0.95667000       0.86377000       0.14488000
    23  H          0.08580000       0.14430000       0.91240000
    24  H          0.91420000       0.85570000       0.08760000
    25  C          0.10733000       0.17852000       0.75263190
    26  C          0.89267000       0.82148000       0.24736810
    27  C          0.03813000       0.16582000       0.67322000
    28  C          0.96187000       0.83418000       0.32678000
    29  H          0.07810000       0.19270000       0.60180000
    30  H          0.92190000       0.80730000       0.39820000
    31  C          0.91007000       0.11362000       0.69902000
    32  C          0.08993000       0.88638000       0.30098000
    33  H          0.86210000       0.10810000       0.64360000
    34  H          0.13790000       0.89190000       0.35640000
    35  C          0.24333000       0.23843000       0.73312000
    36  C          0.75667000       0.76157000       0.26688000
    37  H          0.20430000       0.33060000       0.75910000
    38  H          0.79570000       0.66940000       0.24090000
    39  H          0.32820000       0.17180000       0.77410000
    40  H          0.67180000       0.82820000       0.22590000
    41  C          0.17193000       0.52572000       0.57717180
    42  C          0.82807000       0.47428000       0.42282820
    43  C          0.01643000       0.53813000       0.62592000
    44  C          0.98357000       0.46187000       0.37408000
    45  H          0.98280000       0.45560000       0.64660000
    46  H          0.01720000       0.54440000       0.35340000
    47  C          0.90987000       0.66983000       0.64472000
    48  C          0.09013000       0.33017000       0.35528000
    49  H          0.80330000       0.67770000       0.67730000
    50  H          0.19670000       0.32230000       0.32270000
    51  C          0.95867000       0.78973000       0.61602000
    52  C          0.04133000       0.21027000       0.38398000
    53  H          0.88590000       0.88010000       0.62940000
    54  H          0.11410000       0.11990000       0.37060000
    55  C          0.11343000       0.77833000       0.56782000
    56  C          0.88657000       0.22167000       0.43218000
    57  H          0.14680000       0.86090000       0.54840000
    58  H          0.85320000       0.13910000       0.45160000
    59  C          0.21993000       0.64743000       0.54762000
    60  C          0.78007000       0.35257000       0.45238000
    61  H          0.32570000       0.64050000       0.51350000
    62  H          0.67430000       0.35950000       0.48650000
    63  C          0.39913000       0.62612000       0.09947190
    64  C          0.60087000       0.37388000       0.90052810
    65  I          0.40493518       0.52990915       0.25718712
    66  I          0.59506482       0.47009085       0.74281288
    67  C          0.49473000       0.70832000       0.04635190
    68  C          0.50527000       0.29168000       0.95364810
    69  F          0.60273170       0.71950150       0.09660120
    70  F          0.39726830       0.28049850       0.90339880
    71  C          0.48433000       0.77952000       0.94410810
    72  C          0.51567000       0.22048000       0.05589190
    73  I          0.63170118       0.90534715       0.87104088
    74  I          0.36829882       0.09465285       0.12895912
    75  C          0.37253000       0.76532000       0.89463810
    76  C          0.62747000       0.23468000       0.10536190
    77  F          0.35764190       0.83550150       0.79572880
    78  F          0.64235810       0.16449850       0.20427120
    79  C          0.27503000       0.68302000       0.94178000
    80  C          0.72497000       0.31698000       0.05822000
    81  I          0.10667200       0.66572219       0.86553085
    82  I          0.89332800       0.33427781       0.13446915
    83  C          0.29143000       0.61472000       0.04422000
    84  C          0.70857000       0.38528000       0.95578000
    85  F          0.19595180       0.53583160       0.09314120
    86  F          0.80404820       0.46416840       0.90685880
