data_OJIKID
_symmetry_space_group_name_H-M    'P1'
_symmetry_Int_Tables_number       1
loop_
_symmetry_equiv_pos_site_id
_symmetry_equiv_pos_as_xyz
1 x,y,z
_cell_length_a                   6.36539
_cell_length_b                   9.035813
_cell_length_c                   19.1583
_cell_angle_alpha                102.2675
_cell_angle_beta                 96.2435
_cell_angle_gamma                98.3495
loop_
_atom_site_label
_atom_site_type_symbol
_atom_site_fract_x
_atom_site_fract_y
_atom_site_fract_z
     1  N          0.33682000       0.49946150       0.15629700
     2  N          0.66318000       0.50053850       0.84370300
     3  C          0.14483000       0.51166190       0.12150900
     4  C          0.85517000       0.48833810       0.87849100
     5  H          0.08990000       0.45640000       0.07350000
     6  H          0.91010000       0.54360000       0.92650000
     7  N          0.04202000       0.60714160       0.16058800
     8  N          0.95798000       0.39285840       0.83941200
     9  C          0.17753000       0.66203180       0.22628900
    10  C          0.82247000       0.33796820       0.77371100
    11  C          0.15413000       0.76757180       0.28816900
    12  C          0.84587000       0.23242820       0.71183100
    13  H          0.02790000       0.81200000       0.29060000
    14  H         -0.02790000       0.18800000       0.70940000
    15  C          0.31733000       0.80687180       0.34618900
    16  C          0.68267000       0.19312820       0.65381100
    17  C          0.50743000       0.74019190       0.34284900
    18  C          0.49257000       0.25980810       0.65715100
    19  C          0.53003000       0.63388190       0.28153900
    20  C          0.46997000       0.36611810       0.71846100
    21  H          0.65500000       0.58810000       0.27890000
    22  H          0.34500000       0.41190000       0.72110000
    23  C          0.36353000       0.59642170       0.22407900
    24  C          0.63647000       0.40357830       0.77592100
    25  C          0.29593000       0.92232000       0.41295100
    26  C          0.70407000       0.07768000       0.58704900
    27  H          0.16510000       0.96520000       0.40460000
    28  H          0.83490000       0.03480000       0.59540000
    29  H          0.42080000       0.00510000       0.42460000
    30  H          0.57920000      -0.00510000       0.57540000
    31  H          0.28770000       0.87170000       0.45330000
    32  H          0.71230000       0.12830000       0.54670000
    33  C          0.68763000       0.78722000       0.40518100
    34  C          0.31237000       0.21278000       0.59481900
    35  H          0.63210000       0.77230000       0.44940000
    36  H          0.36790000       0.22770000       0.55060000
    37  H          0.74930000       0.89570000       0.41120000
    38  H          0.25070000       0.10430000       0.58880000
    39  H          0.79860000       0.72400000       0.39550000
    40  H          0.20140000       0.27600000       0.60450000
    41  N          0.76812000       0.17369170       0.23602800
    42  N          0.23188000       0.82630830       0.76397200
    43  C          0.72413000       0.27902190       0.19990900
    44  C          0.27587000       0.72097810       0.80009100
    45  H          0.83840000       0.35720000       0.19750000
    46  H          0.16160000       0.64280000       0.80250000
    47  C          0.52203000       0.28143180       0.16576800
    48  C          0.47797000       0.71856820       0.83423200
    49  C          0.35503000       0.16752000       0.16937100
    50  C          0.64497000       0.83248000       0.83062900
    51  H          0.21340000       0.16600000       0.14730000
    52  H          0.78660000       0.83400000       0.85270000
    53  C          0.39863000       0.05662000       0.20555110
    54  C          0.60137000       0.94338000       0.79444890
    55  H          0.28780000       0.97590000       0.20790000
    56  H          0.71220000       0.02410000       0.79210000
    57  C          0.60583000       0.06412000       0.23845100
    58  C          0.39417000       0.93588000       0.76154900
    59  H          0.63380000      -0.01210000       0.26390000
    60  H          0.36620000       0.01210000       0.73610000
    61  C          0.48953000       0.40618190       0.12682900
    62  C          0.51047000       0.59381810       0.87317100
    63  H          0.62920000       0.47360000       0.13000000
    64  H          0.37080000       0.52640000       0.87000000
    65  H          0.43730000       0.35880000       0.07520000
    66  H          0.56270000       0.64120000       0.92480000
    67  C          0.62018000       0.91508170       0.03824800
    68  C          0.37982000       0.08491830       0.96175200
    69  I          0.79811384       0.78586311       0.09287050
    70  I          0.20188616       0.21413689       0.90712950
    71  C          0.71188000       0.05401180       0.02626900
    72  C          0.28812000       0.94598820       0.97373100
    73  F          0.91940850       0.11369110       0.05216600
    74  F          0.08059150       0.88630890       0.94783400
    75  C          0.40517000       0.86317170       0.01119900
    76  C          0.59483000       0.13682830       0.98880100
    77  F          0.30579840       0.72749110       0.01947600
    78  F          0.69420160       0.27250890       0.98052400
    79  C          0.34893000       0.42962000       0.43791100
    80  C          0.65107000       0.57038000       0.56208900
    81  I          0.11828217       0.31664113       0.34962260
    82  I          0.88171783       0.68335887       0.65037740
    83  C          0.54183000       0.37872000       0.45091100
    84  C          0.45817000       0.62128000       0.54908900
    85  F          0.58818180       0.25855130       0.40442600
    86  F          0.41181820       0.74144870       0.59557400
    87  C          0.31133000       0.55322000       0.48821100
    88  C          0.68867000       0.44678000       0.51178900
    89  F          0.13072170       0.61123120       0.47787600
    90  F          0.86927830       0.38876880       0.52212400
