data_OJIKEZ
_symmetry_space_group_name_H-M    'P1'
_symmetry_Int_Tables_number       1
loop_
_symmetry_equiv_pos_site_id
_symmetry_equiv_pos_as_xyz
1 x,y,z
_cell_length_a                   8.168015
_cell_length_b                   13.865518
_cell_length_c                   14.8003
_cell_angle_alpha                108.69911
_cell_angle_beta                 102.032
_cell_angle_gamma                102.75114
loop_
_atom_site_label
_atom_site_type_symbol
_atom_site_fract_x
_atom_site_fract_y
_atom_site_fract_z
     1  N          0.43413000       0.40572170       0.17933160
     2  N          0.56587000       0.59427830       0.82066840
     3  C          0.49383000       0.48252000       0.14482000
     4  C          0.50617000       0.51748000       0.85518000
     5  H          0.44650000       0.47640000       0.07820000
     6  H          0.55350000       0.52360000       0.92180000
     7  N          0.62283000       0.56547180       0.21212180
     8  N          0.37717000       0.43452820       0.78787820
     9  C          0.65033000       0.54205190       0.29762000
    10  C          0.34967000       0.45794810       0.70238000
    11  C          0.77294000       0.59962000       0.39132000
    12  C          0.22706000       0.40038000       0.60868000
    13  H          0.85290000       0.66760000       0.40560000
    14  H          0.14710000       0.33240000       0.59440000
    15  C          0.77694000       0.55642000       0.46392000
    16  C          0.22306000       0.44358000       0.53608000
    17  C          0.65914000       0.45412000       0.44242000
    18  C          0.34086000       0.54588000       0.55758000
    19  C          0.53524000       0.39682000       0.34922000
    20  C          0.46476000       0.60318000       0.65078000
    21  H          0.45480000       0.32880000       0.33450000
    22  H          0.54520000       0.67120000       0.66550000
    23  C          0.53293000       0.44232190       0.27821190
    24  C          0.46707000       0.55767810       0.72178810
    25  C          0.90814000       0.61803000       0.56652000
    26  C          0.09186000       0.38197000       0.43348000
    27  H         -0.02090000       0.68630000       0.56910000
    28  H          0.02090000       0.31370000       0.43090000
    29  H         -0.01490000       0.57610000       0.58060000
    30  H          0.01490000       0.42390000       0.41940000
    31  H          0.84520000       0.63170000       0.61660000
    32  H          0.15480000       0.36830000       0.38340000
    33  C          0.66925000       0.40613000       0.52142000
    34  C          0.33075000       0.59387000       0.47858000
    35  H          0.57910000       0.33590000       0.49440000
    36  H          0.42090000       0.66410000       0.50560000
    37  H          0.64890000       0.45360000       0.58020000
    38  H          0.35110000       0.54640000       0.41980000
    39  H          0.78600000       0.39790000       0.54060000
    40  H          0.21400000       0.60210000       0.45940000
    41  N          0.88597000       0.21278180       0.19522180
    42  N          0.11403000       0.78721820       0.80477820
    43  C          0.03673000       0.22052000       0.17122000
    44  C          0.96327000       0.77948000       0.82878000
    45  H          0.08480000       0.16320000       0.16570000
    46  H          0.91520000       0.83680000       0.83430000
    47  C          0.12623000       0.30644190       0.15412180
    48  C          0.87377000       0.69355810       0.84587820
    49  C          0.05814000       0.39072000       0.16342000
    50  C          0.94186000       0.60928000       0.83658000
    51  H          0.11630000       0.45150000       0.15260000
    52  H          0.88370000       0.54850000       0.84740000
    53  C          0.90316000       0.38492000       0.18872000
    54  C          0.09684000       0.61508000       0.81128000
    55  H          0.85360000       0.44180000       0.19600000
    56  H          0.14640000       0.55820000       0.80400000
    57  C          0.82186000       0.29472000       0.20312000
    58  C          0.17814000       0.70528000       0.79688000
    59  H          0.71480000       0.29090000       0.21940000
    60  H          0.28520000       0.70910000       0.78060000
    61  C          0.29173000       0.30572000       0.12342000
    62  C          0.70827000       0.69428000       0.87658000
    63  H          0.33120000       0.24640000       0.13370000
    64  H          0.66880000       0.75360000       0.86630000
    65  H          0.26420000       0.29200000       0.05120000
    66  H          0.73580000       0.70800000       0.94880000
    67  C          0.09523000       0.75102000       0.11392190
    68  C          0.90477000       0.24898000       0.88607810
    69  I          0.89671200       0.67098212       0.15875612
    70  I          0.10328800       0.32901788       0.84124388
    71  C          0.10433000       0.84942000       0.10566190
    72  C          0.89567000       0.15058000       0.89433810
    73  I          0.92474200       0.93008613       0.14029914
    74  I          0.07525800       0.06991387       0.85970086
    75  C          0.23494000       0.89512000       0.07192000
    76  C          0.76506000       0.10488000       0.92808000
    77  F          0.24682000      -0.01055850       0.06301150
    78  F          0.75318000       0.01055850       0.93698850
    79  C          0.35624000       0.84492000       0.04512000
    80  C          0.64376000       0.15508000       0.95488000
    81  F          0.47882000       0.88905170       0.01086150
    82  F          0.52118000       0.11094830       0.98913850
    83  C          0.34694000       0.74832000       0.05322000
    84  C          0.65306000       0.25168000       0.94678000
    85  F          0.46273000       0.69867160       0.02690160
    86  F          0.53727000       0.30132840       0.97309840
    87  C          0.21834000       0.70232000       0.08702000
    88  C          0.78166000       0.29768000       0.91298000
    89  F          0.21303000       0.60634140       0.09156160
    90  F          0.78697000       0.39365860       0.90843840
    91  C          0.46827000       0.01522000       0.33602000
    92  C          0.53173000       0.98478000       0.66398000
    93  I          0.65418800       0.08701914       0.27942314
    94  I          0.34581200       0.91298086       0.72057686
    95  C          0.45997000       0.91988000       0.35072000
    96  C          0.54003000       0.08012000       0.64928000
    97  I          0.62652700       0.83022783       0.31438515
    98  I          0.37347300       0.16977217       0.68561485
    99  C          0.33096000       0.88048000       0.38892000
   100  C          0.66904000       0.11952000       0.61108000
   101  F          0.31827000       0.78941840       0.40420170
   102  F          0.68173000       0.21058160       0.59579830
   103  C          0.20916000       0.93107000       0.41162000
   104  C          0.79084000       0.06893000       0.58838000
   105  F          0.08647000       0.89054810       0.44718170
   106  F          0.91353000       0.10945190       0.55281830
   107  C          0.21646000       0.02492000       0.39672000
   108  C          0.78354000       0.97508000       0.60328000
   109  F          0.09887000       0.07488170       0.41642160
   110  F          0.90113000       0.92511830       0.58357840
   111  C          0.34456000       0.06552000       0.35912000
   112  C          0.65544000       0.93448000       0.64088000
   113  F          0.34357000       0.15573140       0.34407160
   114  F          0.65643000       0.84426860       0.65592840
