data_OJIKOJ
_symmetry_space_group_name_H-M    'P1'
_symmetry_Int_Tables_number       1
loop_
_symmetry_equiv_pos_site_id
_symmetry_equiv_pos_as_xyz
1 x,y,z
_cell_length_a                   9.072817
_cell_length_b                   9.499717
_cell_length_c                   19.9254
_cell_angle_alpha                92.4966
_cell_angle_beta                 101.1027
_cell_angle_gamma                108.9626
loop_
_atom_site_label
_atom_site_type_symbol
_atom_site_fract_x
_atom_site_fract_y
_atom_site_fract_z
     1  N          0.78134000       0.42373000       0.26174150
     2  N          0.21866000       0.57627000       0.73825850
     3  C          0.90105000       0.50544000       0.31493180
     4  C          0.09895000       0.49456000       0.68506820
     5  H          0.93250000       0.61130000       0.32340000
     6  H          0.06750000       0.38870000       0.67660000
     7  N          0.96974000       0.42653000       0.35361150
     8  N          0.03026000       0.57347000       0.64638850
     9  C          0.88754000       0.27864000       0.32376170
    10  C          0.11246000       0.72136000       0.67623830
    11  C          0.91194000       0.14514000       0.34069170
    12  C          0.08806000       0.85486000       0.65930830
    13  H         -0.00670000       0.14500000       0.37860000
    14  H          0.00670000       0.85500000       0.62140000
    15  C          0.81304000       0.01204000       0.30014170
    16  C          0.18696000      -0.01204000       0.69985830
    17  C          0.68954000       0.01074000       0.24423170
    18  C          0.31046000      -0.01074000       0.75576830
    19  C          0.66724000       0.14304000       0.22695170
    20  C          0.33276000       0.85696000       0.77304830
    21  H          0.58540000       0.14370000       0.18930000
    22  H          0.41460000       0.85630000       0.81070000
    23  C          0.76944000       0.27474000       0.26686170
    24  C          0.23056000       0.72526000       0.73313830
    25  C          0.84275000       0.86696000       0.31456190
    26  C          0.15725000       0.13304000       0.68543810
    27  H          0.93190000       0.88660000       0.35430000
    28  H          0.06810000       0.11340000       0.64570000
    29  H          0.86890000       0.82600000       0.27420000
    30  H          0.13110000       0.17400000       0.72580000
    31  H          0.74650000       0.79470000       0.32440000
    32  H          0.25350000       0.20530000       0.67560000
    33  C          0.58205000       0.86466000       0.20242000
    34  C          0.41795000       0.13534000       0.79758000
    35  H          0.50410000       0.88410000       0.16590000
    36  H          0.49590000       0.11590000       0.83410000
    37  H          0.52560000       0.79800000       0.23240000
    38  H          0.47440000       0.20200000       0.76760000
    39  H          0.64640000       0.81730000       0.18180000
    40  H          0.35360000       0.18270000       0.81820000
    41  N          0.26874000       0.48874000       0.17986180
    42  N          0.73126000       0.51126000       0.82013820
    43  C          0.41205000       0.49264000       0.17206180
    44  C          0.58795000       0.50736000       0.82793820
    45  H          0.44080000       0.51920000       0.12980000
    46  H          0.55920000       0.48080000       0.87020000
    47  C          0.52244000       0.46004000       0.22210170
    48  C          0.47756000       0.53996000       0.77789830
    49  C          0.47755000       0.41944000       0.28295180
    50  C          0.52245000       0.58056000       0.71704820
    51  H          0.54920000       0.39640000       0.31860000
    52  H          0.45080000       0.60360000       0.68140000
    53  C          0.32935000       0.41244000       0.29152000
    54  C          0.67065000       0.58756000       0.70848000
    55  H          0.29670000       0.38330000       0.33290000
    56  H          0.70330000       0.61670000       0.66710000
    57  C          0.22785000       0.44834000       0.23942000
    58  C          0.77215000       0.55166000       0.76058000
    59  H          0.12550000       0.44420000       0.24590000
    60  H          0.87450000       0.55580000       0.75410000
    61  C          0.68485000       0.47734000       0.20927180
    62  C          0.31515000       0.52266000       0.79072820
    63  H          0.67200000       0.42170000       0.16410000
    64  H          0.32800000       0.57830000       0.83590000
    65  H          0.74200000       0.58450000       0.20670000
    66  H          0.25800000       0.41550000       0.79330000
    67  C          0.30544000       0.87044000       0.52552170
    68  C          0.69456000       0.12956000       0.47447830
    69  I          0.17617300       0.66683200       0.46452711
    70  I          0.82382700       0.33316800       0.53547289
    71  C          0.43164000       0.88434000       0.57969170
    72  C          0.56836000       0.11566000       0.42030830
    73  F          0.47243000       0.76262000       0.59174110
    74  F          0.52757000       0.23738000       0.40825890
    75  C          0.51864000       0.01774000       0.62137170
    76  C          0.48136000       0.98226000       0.37862830
    77  I          0.70521300       0.02886300       0.70261112
    78  I          0.29478700       0.97113700       0.29738888
    79  C          0.47534000       0.14224000       0.60661170
    80  C          0.52466000       0.85776000       0.39338830
    81  F          0.55493000       0.27132000       0.64698110
    82  F          0.44507000       0.72868000       0.35301890
    83  C          0.35354000       0.13664000       0.55215180
    84  C          0.64646000       0.86336000       0.44784820
    85  I          0.29858300       0.32812300       0.52833112
    86  I          0.70141700       0.67187700       0.47166888
    87  C          0.26864000      -0.00076000       0.51322170
    88  C          0.73136000       0.00076000       0.48677830
    89  F          0.14713000      -0.00958000       0.46087110
    90  F          0.85287000       0.00958000       0.53912890
    91  C          0.95205000       0.72374000       0.02758180
    92  C          0.04795000       0.27626000       0.97241820
    93  I          0.08642300       0.62644300       0.09598212
    94  I          0.91357700       0.37355700       0.90401788
    95  C          0.80046000       0.71804000       0.03128170
    96  C          0.19954000       0.28196000       0.96871830
    97  F          0.73977000       0.65273000       0.08304110
    98  F          0.26023000       0.34727000       0.91695890
    99  C          0.70826000       0.77594000       0.98493830
   100  C          0.29174000       0.22406000       0.01506170
   101  I          0.47922700       0.75935300       0.99254787
   102  I          0.52077300       0.24064700       0.00745213
   103  C          0.77306000       0.84334000       0.93211830
   104  C          0.22694000       0.15666000       0.06788170
   105  F          0.68687000       0.90013000       0.88603890
   106  F          0.31313000       0.09987000       0.11396110
   107  C          0.92266000       0.85234000       0.92511820
   108  C          0.07734000       0.14766000       0.07488180
   109  I          0.01501300       0.93834300       0.84234988
   110  I         -0.01501300       0.06165700       0.15765012
   111  C          0.00904000       0.79244000       0.97350810
   112  C         -0.00904000       0.20756000       0.02649190
   113  F          0.15643000       0.80103000       0.96740870
   114  F          0.84357000       0.19897000       0.03259130
