data_OJIWEM
_symmetry_space_group_name_H-M    'P1'
_symmetry_Int_Tables_number       1
loop_
_symmetry_equiv_pos_site_id
_symmetry_equiv_pos_as_xyz
1 x,y,z
_cell_length_a                   7.953001
_cell_length_b                   18.46962
_cell_length_c                   17.10203
_cell_angle_alpha                90.0
_cell_angle_beta                 93.87501
_cell_angle_gamma                90.0
loop_
_atom_site_label
_atom_site_type_symbol
_atom_site_fract_x
_atom_site_fract_y
_atom_site_fract_z
     1  S          0.26517600       0.36342200       0.51473200
     2  S          0.73482400       0.86342200       0.98526800
     3  S          0.73482400       0.63657800       0.48526800
     4  S          0.26517600       0.13657800       0.01473200
     5  O          0.39633180       0.36592700       0.57816700
     6  O          0.60366820       0.86592700       0.92183300
     7  O          0.60366820       0.63407300       0.42183300
     8  O          0.39633180       0.13407300       0.07816700
     9  O          0.10871180       0.33522700       0.53937700
    10  O          0.89128820       0.83522700       0.96062300
    11  O          0.89128820       0.66477300       0.46062300
    12  O          0.10871180       0.16477300       0.03937700
    13  O          0.32092180       0.33395700       0.44306700
    14  O          0.67907820       0.83395700       0.05693300
    15  O          0.67907820       0.66604300       0.55693300
    16  O          0.32092180       0.16604300       0.94306700
    17  O          0.15502000       0.43066700       0.29029700
    18  O          0.84498000       0.93066700       0.20970300
    19  O          0.84498000       0.56933300       0.70970300
    20  O          0.15502000       0.06933300       0.79029700
    21  O         -0.00088180       0.38303700       0.37564800
    22  O          0.00088180       0.88303700       0.12435200
    23  O          0.00088180       0.61696300       0.62435200
    24  O         -0.00088180       0.11696300       0.87564800
    25  O          0.17413190       0.69135700       0.34911800
    26  O          0.82586810       0.19135700       0.15088200
    27  O          0.82586810       0.30864300       0.65088200
    28  O          0.17413190       0.80864300       0.84911800
    29  O          0.27412190       0.72413700       0.46499800
    30  O          0.72587810       0.22413700       0.03500200
    31  O          0.72587810       0.27586300       0.53500200
    32  O          0.27412190       0.77586300       0.96499800
    33  O          0.22422190       0.47464700       0.66282700
    34  O          0.77577810       0.97464700       0.83717300
    35  O          0.77577810       0.52535300       0.33717300
    36  O          0.22422190       0.02535300       0.16282700
    37  O          0.47037190       0.52116700       0.64723800
    38  O          0.52962810       0.02116700       0.85276200
    39  O          0.52962810       0.47883300       0.35276200
    40  O          0.47037190       0.97883300       0.14723800
    41  N          0.10402000       0.42604800       0.35594800
    42  N          0.89598000       0.92604800       0.14405200
    43  N          0.89598000       0.57395200       0.64405200
    44  N          0.10402000       0.07395200       0.85594800
    45  N          0.22442000       0.67836800       0.41705900
    46  N          0.77558000       0.17836800       0.08294100
    47  N          0.77558000       0.32163200       0.58294100
    48  N          0.22442000       0.82163200       0.91705900
    49  N          0.33042000       0.50105800       0.62308900
    50  N          0.66958000       0.00105800       0.87691100
    51  N          0.66958000       0.49894200       0.37691100
    52  N          0.33042000      -0.00105800       0.12308900
    53  C          0.22812000       0.45776100       0.48966100
    54  C          0.77188000       0.95776100       0.01033900
    55  C          0.77188000       0.54223900       0.51033900
    56  C          0.22812000       0.04223900       0.98966100
    57  C          0.28022000       0.51430100       0.53943100
    58  C          0.71978000       0.01430100       0.96056900
    59  C          0.71978000       0.48569900       0.46056900
    60  C          0.28022000       0.98569900       0.03943100
    61  C          0.28352000       0.58601100       0.51736100
    62  C          0.71648000       0.08601100       0.98263900
    63  C          0.71648000       0.41398900       0.48263900
    64  C          0.28352000       0.91398900       0.01736100
    65  H          0.32420000       0.62260000       0.55280000
    66  H          0.67580000       0.12260000       0.94720000
    67  H          0.67580000       0.37740000       0.44720000
    68  H          0.32420000       0.87740000       0.05280000
    69  C          0.22532000       0.60238900       0.44185100
    70  C          0.77468000       0.10238900       0.05814900
    71  C          0.77468000       0.39761100       0.55814900
    72  C          0.22532000       0.89761100       0.94185100
    73  C          0.16662000       0.55061100       0.38914100
    74  C          0.83338000       0.05061100       0.11085900
    75  C          0.83338000       0.44938900       0.61085900
    76  C          0.16662000       0.94938900       0.88914100
    77  H          0.12560000       0.56320000       0.33740000
    78  H          0.87440000       0.06320000       0.16260000
    79  H          0.87440000       0.43680000       0.66260000
    80  H          0.12560000       0.93680000       0.83740000
    81  C          0.16952000       0.47964900       0.41436100
    82  C          0.83048000       0.97964900       0.08563900
    83  C          0.83048000       0.52035100       0.58563900
    84  C          0.16952000       0.02035100       0.91436100
    85  O          0.03432000       0.35782900       0.79952900
    86  O          0.96568000       0.85782900       0.70047100
    87  O          0.96568000       0.64217100       0.20047100
    88  O          0.03432000       0.14217100       0.29952900
    89  O          0.05902000       0.42888700       0.90504700
    90  O          0.94098000       0.92888700       0.59495300
    91  O          0.94098000       0.57111300       0.09495300
    92  O          0.05902000       0.07111300       0.40504700
    93  C         -0.00784000       0.30729130       0.92556140
    94  C          0.00784000       0.80729130       0.57443860
    95  C          0.00784000       0.69270870       0.07443860
    96  C         -0.00784000       0.19270870       0.42556140
    97  H          0.87310000       0.31010000       0.93680000
    98  H          0.12690000       0.81010000       0.56320000
    99  H          0.12690000       0.68990000       0.06320000
   100  H          0.87310000       0.18990000       0.43680000
   101  H          0.06280000       0.31350000       0.97430000
   102  H          0.93720000       0.81350000       0.52570000
   103  H          0.93720000       0.68650000       0.02570000
   104  H          0.06280000       0.18650000       0.47430000
   105  H          0.01510000       0.26000000       0.90260000
   106  H         -0.01510000       0.76000000       0.59740000
   107  H         -0.01510000       0.74000000       0.09740000
   108  H          0.01510000       0.24000000       0.40260000
   109  C          0.03063000       0.36510120       0.86977120
   110  C          0.96937000       0.86510120       0.63022880
   111  C          0.96937000       0.63489880       0.13022880
   112  C          0.03063000       0.13489880       0.36977120
   113  C          0.09523000       0.48912130       0.85461130
   114  C          0.90477000       0.98912130       0.64538870
   115  C          0.90477000       0.51087870       0.14538870
   116  C          0.09523000       0.01087870       0.35461130
   117  H         -0.00240000       0.49870000       0.81700000
   118  H          0.00240000      -0.00130000       0.68300000
   119  H          0.00240000       0.50130000       0.18300000
   120  H         -0.00240000       0.00130000       0.31700000
   121  H          0.19420000       0.47790000       0.82470000
   122  H          0.80580000       0.97790000       0.67530000
   123  H          0.80580000       0.52210000       0.17530000
   124  H          0.19420000       0.02210000       0.32470000
   125  C          0.13004000       0.55328130       0.90533140
   126  C          0.86996000       0.05328130       0.59466860
   127  C          0.86996000       0.44671870       0.09466860
   128  C          0.13004000       0.94671870       0.40533140
   129  H          0.14250000       0.59620000       0.87250000
   130  H          0.85750000       0.09620000       0.62750000
   131  H          0.85750000       0.40380000       0.12750000
   132  H          0.14250000       0.90380000       0.37250000
   133  H          0.23430000       0.54540000       0.93810000
   134  H          0.76570000       0.04540000       0.56190000
   135  H          0.76570000       0.45460000       0.06190000
   136  H          0.23430000       0.95460000       0.43810000
   137  H          0.03630000       0.56060000       0.93890000
   138  H          0.96370000       0.06060000       0.56110000
   139  H          0.96370000       0.43940000       0.06110000
   140  H          0.03630000       0.93940000       0.43890000
   141  N          0.25112000       0.28124800       0.70768900
   142  N          0.74888000       0.78124800       0.79231100
   143  N          0.74888000       0.71875200       0.29231100
   144  N          0.25112000       0.21875200       0.20768900
   145  H          0.16730000       0.30391200       0.73551200
   146  H          0.83270000       0.80391200       0.76448800
   147  H          0.83270000       0.69608800       0.26448800
   148  H          0.16730000       0.19608800       0.23551200
   149  H          0.29230000       0.30781500       0.67181500
   150  H          0.70770000       0.80781500       0.82818500
   151  H          0.70770000       0.69218500       0.32818500
   152  H          0.29230000       0.19218500       0.17181500
   153  C          0.39313000       0.25989100       0.76691110
   154  C          0.60687000       0.75989100       0.73308890
   155  C          0.60687000       0.74010900       0.23308890
   156  C          0.39313000       0.24010900       0.26691110
   157  H          0.34600000       0.22630000       0.80580000
   158  H          0.65400000       0.72630000       0.69420000
   159  H          0.65400000       0.77370000       0.19420000
   160  H          0.34600000       0.27370000       0.30580000
   161  C          0.52583000       0.21857100       0.72423110
   162  C          0.47417000       0.71857100       0.77576890
   163  C          0.47417000       0.78142900       0.27576890
   164  C          0.52583000       0.28142900       0.22423110
   165  H          0.56940000       0.25150000       0.68380000
   166  H          0.43060000       0.75150000       0.81620000
   167  H          0.43060000       0.74850000       0.31620000
   168  H          0.56940000       0.24850000       0.18380000
   169  C          0.44763000       0.15268100       0.68214120
   170  C          0.55237000       0.65268100       0.81785880
   171  C          0.55237000       0.84731900       0.31785880
   172  C          0.44763000       0.34731900       0.18214120
   173  H          0.53350000       0.12870000       0.65180000
   174  H          0.46650000       0.62870000       0.84820000
   175  H          0.46650000       0.87130000       0.34820000
   176  H          0.53350000       0.37130000       0.15180000
   177  H          0.41100000       0.11770000       0.72140000
   178  H          0.58900000       0.61770000       0.77860000
   179  H          0.58900000       0.88230000       0.27860000
   180  H          0.41100000       0.38230000       0.22140000
   181  C          0.29723000       0.17345100       0.62711120
   182  C          0.70277000       0.67345100       0.87288880
   183  C          0.70277000       0.82654900       0.37288880
   184  C          0.29723000       0.32654900       0.12711120
   185  H          0.33640000       0.20280000       0.58350000
   186  H          0.66360000       0.70280000       0.91650000
   187  H          0.66360000       0.79720000       0.41650000
   188  H          0.33640000       0.29720000       0.08350000
   189  H          0.24390000       0.12900000       0.60450000
   190  H          0.75610000       0.62900000       0.89550000
   191  H          0.75610000       0.87100000       0.39550000
   192  H          0.24390000       0.37100000       0.10450000
   193  C          0.16833000       0.21610100       0.66916110
   194  C          0.83167000       0.71610100       0.83083890
   195  C          0.83167000       0.78389900       0.33083890
   196  C          0.16833000       0.28389900       0.16916110
   197  H          0.07570000       0.23170000       0.63130000
   198  H          0.92430000       0.73170000       0.86870000
   199  H          0.92430000       0.76830000       0.36870000
   200  H          0.07570000       0.26830000       0.13130000
   201  H          0.11960000       0.18520000       0.70920000
   202  H          0.88040000       0.68520000       0.79080000
   203  H          0.88040000       0.81480000       0.29080000
   204  H          0.11960000       0.31480000       0.20920000
   205  C          0.46043000       0.32634100       0.81062110
   206  C          0.53957000       0.82634100       0.68937890
   207  C          0.53957000       0.67365900       0.18937890
   208  C          0.46043000       0.17365900       0.31062110
   209  C          0.45893000       0.32783110       0.89190120
   210  C          0.54107000       0.82783110       0.60809880
   211  C          0.54107000       0.67216890       0.10809880
   212  C          0.45893000       0.17216890       0.39190120
   213  H          0.41250000       0.28830000       0.91880000
   214  H          0.58750000       0.78830000       0.58120000
   215  H          0.58750000       0.71170000       0.08120000
   216  H          0.41250000       0.21170000       0.41880000
   217  C          0.52483000       0.38659120       0.93371120
   218  C          0.47517000       0.88659120       0.56628880
   219  C          0.47517000       0.61340880       0.06628880
   220  C          0.52483000       0.11340880       0.43371120
   221  H          0.52380000       0.38710000       0.98920000
   222  H          0.47620000       0.88710000       0.51080000
   223  H          0.47620000       0.61290000       0.01080000
   224  H          0.52380000       0.11290000       0.48920000
   225  C          0.59213000       0.44462110       0.89537120
   226  C          0.40787000       0.94462110       0.60462880
   227  C          0.40787000       0.55537890       0.10462880
   228  C          0.59213000       0.05537890       0.39537120
   229  H          0.63710000       0.48490000       0.92430000
   230  H          0.36290000       0.98490000       0.57570000
   231  H          0.36290000       0.51510000       0.07570000
   232  H          0.63710000       0.01510000       0.42430000
   233  C          0.59323000       0.44340110       0.81442120
   234  C          0.40677000       0.94340110       0.68557880
   235  C          0.40677000       0.55659890       0.18557880
   236  C          0.59323000       0.05659890       0.31442120
   237  H          0.63880000       0.48310000       0.78760000
   238  H          0.36120000       0.98310000       0.71240000
   239  H          0.36120000       0.51690000       0.21240000
   240  H          0.63880000       0.01690000       0.28760000
   241  C          0.52843000       0.38474110       0.77253110
   242  C          0.47157000       0.88474110       0.72746890
   243  C          0.47157000       0.61525890       0.22746890
   244  C          0.52843000       0.11525890       0.27253110
   245  H          0.53040000       0.38430000       0.71700000
   246  H          0.46960000       0.88430000       0.78300000
   247  H          0.46960000       0.61570000       0.28300000
   248  H          0.53040000       0.11570000       0.21700000
   249  C          0.67333000       0.19671120       0.78044130
   250  C          0.32667000       0.69671120       0.71955870
   251  C          0.32667000       0.80328880       0.21955870
   252  C          0.67333000       0.30328880       0.28044130
   253  H          0.72900000       0.24020000       0.80240000
   254  H          0.27100000       0.74020000       0.69760000
   255  H          0.27100000       0.75980000       0.19760000
   256  H          0.72900000       0.25980000       0.30240000
   257  H          0.75400000       0.16830000       0.75220000
   258  H          0.24600000       0.66830000       0.74780000
   259  H          0.24600000       0.83170000       0.24780000
   260  H          0.75400000       0.33170000       0.25220000
   261  H          0.63210000       0.16750000       0.82300000
   262  H          0.36790000       0.66750000       0.67700000
   263  H          0.36790000       0.83250000       0.17700000
   264  H          0.63210000       0.33250000       0.32300000
