data_OJUBAY
_symmetry_space_group_name_H-M    'P1'
_symmetry_Int_Tables_number       1
loop_
_symmetry_equiv_pos_site_id
_symmetry_equiv_pos_as_xyz
1 x,y,z
_cell_length_a                   6.5131
_cell_length_b                   8.6741
_cell_length_c                   14.2721
_cell_angle_alpha                105.991
_cell_angle_beta                 96.031
_cell_angle_gamma                94.231
loop_
_atom_site_label
_atom_site_type_symbol
_atom_site_fract_x
_atom_site_fract_y
_atom_site_fract_z
     1  Cl         0.73405300      -0.01296400       0.82553400
     2  Cl         0.26594700       0.01296400       0.17446600
     3  N          0.54121180       0.55270150       0.81915800
     4  N          0.45878820       0.44729850       0.18084200
     5  N          0.78212180       0.43420150       0.71390800
     6  N          0.21787820       0.56579850       0.28609200
     7  N          0.50506190       0.56199160       0.65378900
     8  N          0.49493810       0.43800840       0.34621100
     9  N          0.81672000       0.44059170       0.87665100
    10  N          0.18328000       0.55940830       0.12334900
    11  N          0.73592000       0.43772000       0.55444100
    12  N          0.26408000       0.56228000       0.44555900
    13  C          0.44872000       0.59487170       0.74373100
    14  C          0.55128000       0.40512830       0.25626900
    15  C          0.71302000       0.47653160       0.80166100
    16  C          0.28698000       0.52346840       0.19833900
    17  C          0.26862000       0.68967170       0.76311100
    18  C          0.73138000       0.31032830       0.23688900
    19  C          0.67252000       0.47891180       0.64237100
    20  C          0.32748000       0.52108820       0.35762900
    21  C          0.93888000       0.87064180       0.80112130
    22  C          0.06112000       0.12935820       0.19887870
    23  C          0.21673000       0.74233190       0.85784120
    24  C          0.78327000       0.25766810       0.14215880
    25  C          0.15283000       0.73132000       0.68899120
    26  C          0.84717000       0.26868000       0.31100880
    27  C          0.05083000       0.83202000       0.87675130
    28  C          0.94917000       0.16798000       0.12324870
    29  C         -0.01253000       0.82172000       0.70702130
    30  C          0.01253000       0.17828000       0.29297870
    31  H          0.29930000       0.72120000       0.90741400
    32  H          0.70070000       0.27880000       0.09258600
    33  H          0.02330000       0.86330000       0.94461600
    34  H         -0.02330000       0.13670000       0.05538400
    35  H          0.77930000       0.48620000       0.93771400
    36  H          0.22070000       0.51380000       0.06228600
    37  H          0.18330000       0.69630000       0.62201600
    38  H          0.81670000       0.30370000       0.37798400
    39  H          0.90370000       0.84730000       0.65661600
    40  H          0.09630000       0.15270000       0.34338400
    41  H          0.93430000       0.40420000       0.87021200
    42  H          0.06570000       0.59580000       0.12978800
    43  H          0.67830000       0.46030000       0.50891600
    44  H          0.32170000       0.53970000       0.49108400
    45  H          0.84530000       0.38220000       0.54731300
    46  H          0.15470000       0.61780000       0.45268700
    47  O          0.26966180       0.40063140       0.92467800
    48  O          0.73033820       0.59936860       0.07532200
    49  H          0.34220000       0.44598000       0.89421200
    50  H          0.65780000       0.55402000       0.10578800
    51  C          0.32253000       0.24162000       0.91221150
    52  C          0.67747000       0.75838000       0.08778850
    53  H          0.25630000       0.17356000       0.84977000
    54  H          0.74370000       0.82644000       0.15023000
    55  H          0.47044000       0.24164000       0.91481600
    56  H          0.52956000       0.75836000       0.08518400
    57  H          0.27630000       0.20161000       0.96379000
    58  H          0.72370000       0.79839000       0.03621000
    59  O          0.10462000       0.25429180       0.69173900
    60  O          0.89538000       0.74570820       0.30826100
    61  O          0.07572000       0.23998190       0.53446900
    62  O          0.92428000       0.76001810       0.46553100
    63  C          0.15992000       0.20582000       0.60421110
    64  C          0.84008000       0.79418000       0.39578890
    65  C          0.40593000       0.04642000       0.49900130
    66  C          0.59407000       0.95358000       0.50099870
    67  C          0.33813000       0.10532000       0.59987130
    68  C          0.66187000       0.89468000       0.40012870
    69  H          0.44330000       0.14030000       0.47581400
    70  H          0.55670000       0.85970000       0.52418600
    71  H          0.29230000       0.97580000       0.45171500
    72  H          0.70770000       0.02420000       0.54828500
    73  H          0.29330000       0.01730000       0.62471500
    74  H          0.70670000      -0.01730000       0.37528500
    75  H          0.45540000       0.17230000       0.64931500
    76  H          0.54460000       0.82770000       0.35068500
    77  H         -0.00240000       0.31330000       0.69401700
    78  H          0.00240000       0.68670000       0.30598300
