data_OJUKOV
_symmetry_space_group_name_H-M    'P1'
_symmetry_Int_Tables_number       1
loop_
_symmetry_equiv_pos_site_id
_symmetry_equiv_pos_as_xyz
1 x,y,z
_cell_length_a                   8.978415
_cell_length_b                   7.237212
_cell_length_c                   38.1607
_cell_angle_alpha                90.0
_cell_angle_beta                 94.3214
_cell_angle_gamma                90.0
loop_
_atom_site_label
_atom_site_type_symbol
_atom_site_fract_x
_atom_site_fract_y
_atom_site_fract_z
     1  C          0.06323000       0.38454000       0.18199600
     2  C          0.43677000       0.88454000       0.31800400
     3  C          0.93677000       0.61546000       0.81800400
     4  C          0.56323000       0.11546000       0.68199600
     5  C          0.12953000       0.43814000       0.15205700
     6  C          0.37047000       0.93814000       0.34794300
     7  C          0.87047000       0.56186000       0.84794300
     8  C          0.62953000       0.06186000       0.65205700
     9  H          0.23322500       0.46455600       0.15220600
    10  H          0.26677500       0.96455600       0.34779400
    11  H          0.76677500       0.53544400       0.84779400
    12  H          0.73322500       0.03544400       0.65220600
    13  C          0.03473000       0.45053000       0.12189600
    14  C          0.46527000       0.95053000       0.37810400
    15  C          0.96527000       0.54947000       0.87810400
    16  C          0.53473000       0.04947000       0.62189600
    17  C          0.88413000       0.41824000       0.12063600
    18  C          0.61587000       0.91824000       0.37936400
    19  C          0.11587000       0.58176000       0.87936400
    20  C          0.38413000       0.08176000       0.62063600
    21  H          0.82248700       0.43017500       0.09939900
    22  H          0.67751300       0.93017500       0.40060100
    23  H          0.17751300       0.56982500       0.90060100
    24  H          0.32248700       0.06982500       0.59939900
    25  C          0.82613000       0.36733000       0.15176700
    26  C          0.67387000       0.86733000       0.34823300
    27  C          0.17387000       0.63267000       0.84823300
    28  C          0.32613000       0.13267000       0.65176700
    29  C          0.91363000       0.34733000       0.18282700
    30  C          0.58637000       0.84733000       0.31717300
    31  C          0.08637000       0.65267000       0.81717300
    32  C          0.41363000       0.15267000       0.68282700
    33  H          0.87215000       0.30940900       0.20384500
    34  H          0.62785000       0.80940900       0.29615500
    35  H          0.12785000       0.69059100       0.79615500
    36  H          0.37215000       0.19059100       0.70384500
    37  N          0.15903000       0.36954000       0.21484600
    38  N          0.34097000       0.86954000       0.28515400
    39  N          0.84097000       0.63046000       0.78515400
    40  N          0.65903000       0.13046000       0.71484600
    41  N          0.10223000       0.50113000       0.08896600
    42  N          0.39777000       0.00113000       0.41103400
    43  N          0.89777000       0.49887000       0.91103400
    44  N          0.60223000      -0.00113000       0.58896600
    45  N          0.66403000       0.33783000       0.15180600
    46  N          0.83597000       0.83783000       0.34819400
    47  N          0.33597000       0.66217000       0.84819400
    48  N          0.16403000       0.16217000       0.65180600
    49  O          0.10283000       0.31415000       0.24067600
    50  O          0.39717000       0.81415000       0.25932400
    51  O          0.89717000       0.68585000       0.75932400
    52  O          0.60283000       0.18585000       0.74067600
    53  O          0.28963000       0.41165000       0.21399700
    54  O          0.21037000       0.91165000       0.28600300
    55  O          0.71037000       0.58835000       0.78600300
    56  O          0.78963000       0.08835000       0.71399700
    57  O          0.22983000       0.55713000       0.09092600
    58  O          0.27017000       0.05713000       0.40907400
    59  O          0.77017000       0.44287000       0.90907400
    60  O          0.72983000       0.94287000       0.59092600
    61  O          0.02443000       0.47973000       0.06157500
    62  O          0.47557000       0.97973000       0.43842500
    63  O          0.97557000       0.52027000       0.93842500
    64  O          0.52443000       0.02027000       0.56157500
    65  O          0.58532000       0.39953000       0.12719600
    66  O          0.91468000       0.89953000       0.37280400
    67  O          0.41468000       0.60047000       0.87280400
    68  O          0.08532000       0.10047000       0.62719600
    69  O          0.61902000       0.25463000       0.17678600
    70  O          0.88098000       0.75463000       0.32321400
    71  O          0.38098000       0.74537000       0.82321400
    72  O          0.11902000       0.24537000       0.67678600
    73  C          0.88343000       0.89753000       0.13525600
    74  C          0.61657000       0.39753000       0.36474400
    75  C          0.11657000       0.10247000       0.86474400
    76  C          0.38343000       0.60247000       0.63525600
    77  C          0.83893000       0.83683000       0.16783600
    78  C          0.66107000       0.33683000       0.33216400
    79  C          0.16107000       0.16317000       0.83216400
    80  C          0.33893000       0.66317000       0.66783600
    81  C          0.68993000       0.77934000       0.17266700
    82  C          0.81007000       0.27934000       0.32733300
    83  C          0.31007000       0.22066000       0.82733300
    84  C          0.18993000       0.72066000       0.67266700
    85  H          0.61486600       0.79067700       0.15385500
    86  H          0.88513400       0.29067700       0.34614500
    87  H          0.38513400       0.20932300       0.84614500
    88  H          0.11486600       0.70932300       0.65385500
    89  C          0.65424000       0.70824000       0.20406700
    90  C          0.84576000       0.20824000       0.29593300
    91  C          0.34576000       0.29176000       0.79593300
    92  C          0.15424000       0.79176000       0.70406700
    93  H          0.55484200       0.66882600       0.20689700
    94  H          0.94515800       0.16882600       0.29310300
    95  H          0.44515800       0.33117400       0.79310300
    96  H          0.05484200       0.83117400       0.70689700
    97  C          0.76424000       0.69284000       0.23235700
    98  C          0.73576000       0.19284000       0.26764300
    99  C          0.23576000       0.30716000       0.76764300
   100  C          0.26424000       0.80716000       0.73235700
   101  H          0.73865400       0.63897000       0.25380000
   102  H          0.76134600       0.13897000       0.24620000
   103  H          0.26134600       0.36103000       0.74620000
   104  H          0.23865400       0.86103000       0.75380000
   105  C          0.90434000       0.75304000       0.22948700
   106  C          0.59566000       0.25304000       0.27051300
   107  C          0.09566000       0.24696000       0.77051300
   108  C          0.40434000       0.74696000       0.72948700
   109  H          0.97499800       0.74686900       0.24927400
   110  H          0.52500200       0.24686900       0.25072600
   111  H          0.02500200       0.25313100       0.75072600
   112  H          0.47499800       0.75313100       0.74927400
   113  C          0.94853000       0.82623000       0.19703600
   114  C          0.55147000       0.32623000       0.30296400
   115  C          0.05147000       0.17377000       0.80296400
   116  C          0.44853000       0.67377000       0.69703600
   117  C          0.09483000       0.87994000       0.19276700
   118  C          0.40517000       0.37994000       0.30723300
   119  C          0.90517000       0.12006000       0.80723300
   120  C          0.59483000       0.62006000       0.69276700
   121  H          0.16642800       0.87580800       0.21238100
   122  H          0.33357200       0.37580800       0.28761900
   123  H          0.83357200       0.12419200       0.78761900
   124  H          0.66642800       0.62419200       0.71238100
   125  C          0.13893000       0.93984000       0.16032700
   126  C          0.36107000       0.43984000       0.33967300
   127  C          0.86107000       0.06016000       0.83967300
   128  C          0.63893000       0.56016000       0.66032700
   129  C          0.28933000      -0.00636000       0.15538900
   130  C          0.21067000       0.49364000       0.34461100
   131  C          0.71067000       0.00636000       0.84461100
   132  C          0.78933000       0.50636000       0.65538900
   133  H          0.36195300      -0.00905600       0.17481400
   134  H          0.13804700       0.49094400       0.32518600
   135  H          0.63804700       0.00905600       0.82518600
   136  H          0.86195300       0.50905600       0.67481400
   137  C          0.32983000       0.04784000       0.12373100
   138  C          0.17017000       0.54784000       0.37626900
   139  C          0.67017000       0.95216000       0.87626900
   140  C          0.82983000       0.45216000       0.62373100
   141  H          0.43041500       0.08173000       0.12097200
   142  H          0.06958500       0.58173000       0.37902800
   143  H          0.56958500       0.91827000       0.87902800
   144  H          0.93041500       0.41827000       0.62097200
   145  C          0.22293000       0.05444000       0.09454800
   146  C          0.27707000       0.55444000       0.40545200
   147  C          0.77707000       0.94556000       0.90545200
   148  C          0.72293000       0.44556000       0.59454800
   149  H          0.25253800       0.09339000       0.07233200
   150  H          0.24746200       0.59339000       0.42766800
   151  H          0.74746200       0.90661000       0.92766800
   152  H          0.75253800       0.40661000       0.57233200
   153  C          0.07903000       0.00594000       0.09783700
   154  C          0.42097000       0.50594000       0.40216300
   155  C          0.92097000      -0.00594000       0.90216300
   156  C          0.57903000       0.49406000       0.59783700
   157  H          0.00914700       0.01131500       0.07788700
   158  H          0.49085300       0.51131500       0.42211300
   159  H         -0.00914700      -0.01131500       0.92211300
   160  H          0.50914700       0.48868500       0.57788700
   161  C          0.03073000       0.94663000       0.13083600
   162  C          0.46927000       0.44663000       0.36916400
   163  C          0.96927000       0.05337000       0.86916400
   164  C          0.53073000       0.55337000       0.63083600
   165  C          0.76953000       0.90643000       0.10422600
   166  C          0.73047000       0.40643000       0.39577400
   167  C          0.23047000       0.09357000       0.89577400
   168  C          0.26953000       0.59357000       0.60422600
   169  O          0.68252000       0.03263000       0.10016500
   170  O          0.81748000       0.53263000       0.39983500
   171  O          0.31748000       0.96737000       0.89983500
   172  O          0.18252000       0.46737000       0.60016500
   173  O          0.77842000       0.76803000       0.08285500
   174  O          0.72158000       0.26803000       0.41714500
   175  O          0.22158000       0.23197000       0.91714500
   176  O          0.27842000       0.73197000       0.58285500
   177  H          0.70240000       0.77250000       0.06319000
   178  H          0.79760000       0.27250000       0.43681000
   179  H          0.29760000       0.22750000       0.93681000
   180  H          0.20240000       0.72750000       0.56319000
   181  C          0.65373000       0.69043000      -0.00064600
   182  C          0.84627000       0.19043000       0.50064600
   183  C          0.34627000       0.30957000       0.00064600
   184  C          0.15373000       0.80957000       0.49935400
   185  C          0.56103000       0.67423000       0.96790400
   186  C          0.93897000       0.17423000       0.53209600
   187  C          0.43897000       0.32577000       0.03209600
   188  C          0.06103000       0.82577000       0.46790400
   189  H          0.60033200       0.62793800       0.94721300
   190  H          0.89966800       0.12793800       0.55278700
   191  H          0.39966800       0.37206200       0.05278700
   192  H          0.10033200       0.87206200       0.44721300
   193  C          0.45443000       0.80683000       0.02794600
   194  C          0.04557000       0.30683000       0.47205400
   195  C          0.54557000       0.19317000       0.97205400
   196  C          0.95443000       0.69317000       0.52794600
   197  H          0.41669400       0.85195000       0.04890700
   198  H          0.08330600       0.35195000       0.45109300
   199  H          0.58330600       0.14805000       0.95109300
   200  H          0.91669400       0.64805000       0.54890700
   201  C          0.36013000       0.79314000      -0.00189700
   202  C          0.13987000       0.29314000       0.50189700
   203  C          0.63987000       0.20686000       0.00189700
   204  C          0.86013000       0.70686000       0.49810300
   205  C          0.41563000       0.72524000       0.96748400
   206  C          0.08437000       0.22524000       0.53251600
   207  C          0.58437000       0.27476000       0.03251600
   208  C          0.91563000       0.77476000       0.46748400
   209  H          0.35204600       0.71473800       0.94652200
   210  H          0.14795400       0.21473800       0.55347800
   211  H          0.64795400       0.28526200       0.05347800
   212  H          0.85204600       0.78526200       0.44652200
   213  N          0.59792000       0.75843000       0.02828500
   214  N          0.90208000       0.25843000       0.47171500
   215  N          0.40208000       0.24157000       0.97171500
   216  N          0.09792000       0.74157000       0.52828500
   217  N          0.79843000       0.64223000       0.00143700
   218  N          0.70157000       0.14223000       0.49856300
   219  N          0.20157000       0.35777000      -0.00143700
   220  N          0.29843000       0.85777000       0.50143700
   221  Br         0.15651300       0.85719400      -0.00131200
   222  Br         0.34348700       0.35719400       0.50131200
   223  Br         0.84348700       0.14280600       0.00131200
   224  Br         0.65651300       0.64280600       0.49868800
   225  H          0.83640000       0.58350000       0.98401000
   226  H          0.66360000       0.08350000       0.51599000
   227  H          0.16360000       0.41650000       0.01599000
   228  H          0.33640000       0.91650000       0.48401000
   229  H          0.84840000       0.62250000       0.02321000
   230  H          0.65160000       0.12250000       0.47679000
   231  H          0.15160000       0.37750000       0.97679000
   232  H          0.34840000       0.87750000       0.52321000
