data_OJUKUB
_symmetry_space_group_name_H-M    'P1'
_symmetry_Int_Tables_number       1
loop_
_symmetry_equiv_pos_site_id
_symmetry_equiv_pos_as_xyz
1 x,y,z
_cell_length_a                   8.93101
_cell_length_b                   7.22398
_cell_length_c                   38.2185
_cell_angle_alpha                90.0
_cell_angle_beta                 94.4022
_cell_angle_gamma                90.0
loop_
_atom_site_label
_atom_site_type_symbol
_atom_site_fract_x
_atom_site_fract_y
_atom_site_fract_z
     1  C          0.32509180       0.13202000       0.15184500
     2  C          0.17490820       0.63202000       0.34815500
     3  C          0.67490820       0.86798000       0.84815500
     4  C          0.82509180       0.36798000       0.65184500
     5  C          0.41385180       0.15072000       0.18265500
     6  C          0.08614820       0.65072000       0.31734500
     7  C          0.58614820       0.84928000       0.81734500
     8  C          0.91385180       0.34928000       0.68265500
     9  H          0.37324900       0.18806200       0.20379700
    10  H          0.12675100       0.68806200       0.29620300
    11  H          0.62675100       0.81193800       0.79620300
    12  H          0.87324900       0.31193800       0.70379700
    13  C          0.56469190       0.11262000       0.18140400
    14  C          0.93530810       0.61262000       0.31859600
    15  C          0.43530810       0.88738000       0.81859600
    16  C          0.06469190       0.38738000       0.68140400
    17  C          0.62847190       0.06042000       0.15129500
    18  C          0.87152810       0.56042000       0.34870500
    19  C          0.37152810       0.93958000       0.84870500
    20  C          0.12847190       0.43958000       0.65129500
    21  H          0.73263300       0.03401800       0.15117800
    22  H          0.76736700       0.53401800       0.34882200
    23  H          0.26736700       0.96598200       0.84882200
    24  H          0.23263300       0.46598200       0.65117800
    25  C          0.53279190       0.04852000       0.12125400
    26  C          0.96720810       0.54852000       0.37874600
    27  C          0.46720810       0.95148000       0.87874600
    28  C          0.03279190       0.45148000       0.62125400
    29  C          0.38118190       0.08202000       0.12061500
    30  C          0.11881810       0.58202000       0.37938500
    31  C          0.61881810       0.91798000       0.87938500
    32  C          0.88118190       0.41798000       0.62061500
    33  H          0.31786000       0.07115900       0.09957800
    34  H          0.18214000       0.57115900       0.40042200
    35  H          0.68214000       0.92884100       0.90042200
    36  H          0.81786000       0.42884100       0.59957800
    37  N          0.16184170       0.16212000       0.15240500
    38  N          0.33815830       0.66212000       0.34759500
    39  N          0.83815830       0.83788000       0.84759500
    40  N          0.66184170       0.33788000       0.65240500
    41  N          0.66227180       0.12672000       0.21410400
    42  N          0.83772820       0.62672000       0.28589600
    43  N          0.33772820       0.87328000       0.78589600
    44  N          0.16227180       0.37328000       0.71410400
    45  N          0.59712000       0.00002000       0.08820400
    46  N          0.90288000       0.50002000       0.41179600
    47  N          0.40288000      -0.00002000       0.91179600
    48  N          0.09712000       0.49998000       0.58820400
    49  O          0.08108140       0.09956190       0.12797400
    50  O          0.41891860       0.59956190       0.37202600
    51  O          0.91891860       0.90043810       0.87202600
    52  O          0.58108140       0.40043810       0.62797400
    53  O          0.11812150       0.24572000       0.17750400
    54  O          0.38187850       0.74572000       0.32249600
    55  O          0.88187850       0.75428000       0.82249600
    56  O          0.61812150       0.25428000       0.67750400
    57  O          0.60709180       0.18303000       0.24015400
    58  O          0.89290820       0.68303000       0.25984600
    59  O          0.39290820       0.81697000       0.75984600
    60  O          0.10709180       0.31697000       0.74015400
    61  O          0.79315160       0.08153000       0.21300400
    62  O          0.70684840       0.58153000       0.28699600
    63  O          0.20684840       0.91847000       0.78699600
    64  O          0.29315160       0.41847000       0.71300400
    65  O          0.72678180       0.94488000       0.08959400
    66  O          0.77321820       0.44488000       0.41040600
    67  O          0.27321820       0.05512000       0.91040600
    68  O          0.22678180       0.55512000       0.58959400
    69  O          0.51780180       0.02242000       0.06099400
    70  O          0.98219820       0.52242000       0.43900600
    71  O          0.48219820       0.97758000       0.93900600
    72  O          0.01780180       0.47758000       0.56099400
    73  C          0.37946160       0.60252000       0.13483400
    74  C          0.12053840       0.10252000       0.36516600
    75  C          0.62053840       0.39748000       0.86516600
    76  C          0.87946160       0.89748000       0.63483400
    77  C          0.33584170       0.66152000       0.16751400
    78  C          0.16415830       0.16152000       0.33248600
    79  C          0.66415830       0.33848000       0.83248600
    80  C          0.83584170       0.83848000       0.66751400
    81  C          0.18625190       0.71972000       0.17271500
    82  C          0.31374810       0.21972000       0.32728500
    83  C          0.81374810       0.28028000       0.82728500
    84  C          0.68625190       0.78028000       0.67271500
    85  H          0.11014600       0.70918300       0.15404100
    86  H          0.38985400       0.20918300       0.34595900
    87  H          0.88985400       0.29081700       0.84595900
    88  H          0.61014600       0.79081700       0.65404100
    89  C          0.15172000       0.78993000       0.20404500
    90  C          0.34828000       0.28993000       0.29595500
    91  C          0.84828000       0.21007000       0.79595500
    92  C          0.65172000       0.71007000       0.70404500
    93  H          0.05202100       0.82950100       0.20700400
    94  H          0.44797900       0.32950100       0.29299600
    95  H          0.94797900       0.17049900       0.79299600
    96  H          0.55202100       0.67049900       0.70700400
    97  C          0.26293000       0.80453000       0.23231500
    98  C          0.23707000       0.30453000       0.26768500
    99  C          0.73707000       0.19547000       0.76768500
   100  C          0.76293000       0.69547000       0.73231500
   101  H          0.23792200       0.85751700       0.25384600
   102  H          0.26207800       0.35751700       0.24615400
   103  H          0.76207800       0.14248300       0.74615400
   104  H          0.73792200       0.64248300       0.75384600
   105  C          0.40442000       0.74383000       0.22903500
   106  C          0.09558000       0.24383000       0.27096500
   107  C          0.59558000       0.25617000       0.77096500
   108  C          0.90442000       0.75617000       0.72903500
   109  H          0.47637100       0.74961000       0.24864300
   110  H          0.02362900       0.24961000       0.25135700
   111  H          0.52362900       0.25039000       0.75135700
   112  H          0.97637100       0.75039000       0.74864300
   113  C          0.44712190       0.67112000       0.19657400
   114  C          0.05287810       0.17112000       0.30342600
   115  C          0.55287810       0.32888000       0.80342600
   116  C          0.94712190       0.82888000       0.69657400
   117  C          0.59402000       0.61722000       0.19188500
   118  C          0.90598000       0.11722000       0.30811500
   119  C          0.40598000       0.38278000       0.80811500
   120  C          0.09402000       0.88278000       0.69188500
   121  H          0.66671800       0.62095400       0.21135600
   122  H          0.83328200       0.12095400       0.28864400
   123  H          0.33328200       0.37904600       0.78864400
   124  H          0.16671800       0.87904600       0.71135600
   125  C          0.63731180       0.55822000       0.15960500
   126  C          0.86268820       0.05822000       0.34039500
   127  C          0.36268820       0.44178000       0.84039500
   128  C          0.13731180       0.94178000       0.65960500
   129  C          0.78807190       0.50313000       0.15432600
   130  C          0.71192810       0.00313000       0.34567400
   131  C          0.21192810       0.49687000       0.84567400
   132  C          0.28807190      -0.00313000       0.65432600
   133  H          0.86183100       0.50480500       0.17360100
   134  H          0.63816900       0.00480500       0.32639900
   135  H          0.13816900       0.49519500       0.82639900
   136  H          0.36183100      -0.00480500       0.67360100
   137  C          0.82732000       0.44883000       0.12247700
   138  C          0.67268000       0.94883000       0.37752300
   139  C          0.17268000       0.55117000       0.87752300
   140  C          0.32732000       0.05117000       0.62247700
   141  H          0.92808600       0.41364900       0.11955600
   142  H          0.57191400       0.91364900       0.38044400
   143  H          0.07191400       0.58635100       0.88044400
   144  H          0.42808600       0.08635100       0.61955600
   145  C          0.71972000       0.44392000       0.09356600
   146  C          0.78028000       0.94392000       0.40643400
   147  C          0.28028000       0.55608000       0.90643400
   148  C          0.21972000       0.05608000       0.59356600
   149  H          0.74891400       0.40546800       0.07130300
   150  H          0.75108600       0.90546800       0.42869700
   151  H          0.25108600       0.59453200       0.92869700
   152  H          0.24891400       0.09453200       0.57130300
   153  C          0.57479190       0.49332000       0.09697500
   154  C          0.92520810      -0.00668000       0.40302500
   155  C          0.42520810       0.50668000       0.90302500
   156  C          0.07479190       0.00668000       0.59697500
   157  H          0.50396600       0.48865600       0.07713100
   158  H         -0.00396600      -0.01134400       0.42286900
   159  H          0.49603400       0.51134400       0.92286900
   160  H          0.00396600       0.01134400       0.57713100
   161  C          0.52787170       0.55202000       0.13006400
   162  C          0.97212830       0.05202000       0.36993600
   163  C          0.47212830       0.44798000       0.86993600
   164  C          0.02787170       0.94798000       0.63006400
   165  C          0.26534160       0.59432000       0.10382400
   166  C          0.23465840       0.09432000       0.39617600
   167  C          0.73465840       0.40568000       0.89617600
   168  C          0.76534160       0.90568000       0.60382400
   169  O          0.17641130       0.46822170       0.09984300
   170  O          0.32358870       0.96822170       0.40015700
   171  O          0.82358870       0.53177830       0.90015700
   172  O          0.67641130       0.03177830       0.59984300
   173  O          0.27426140       0.73282170       0.08243300
   174  O          0.22573860       0.23282170       0.41756700
   175  O          0.72573860       0.26717830       0.91756700
   176  O          0.77426140       0.76717830       0.58243300
   177  H          0.20667100       0.72340500       0.06598900
   178  H          0.29332900       0.22340500       0.43401100
   179  H          0.79332900       0.27659500       0.93401100
   180  H          0.70667100       0.77659500       0.56598900
   181  C          0.14661180       0.80632000      -0.00140400
   182  C          0.35338820       0.30632000       0.50140400
   183  C          0.85338820       0.19368000       0.00140400
   184  C          0.64661180       0.69368000       0.49859600
   185  C          0.05249190       0.82292000       0.96762500
   186  C          0.44750810       0.32292000       0.53237500
   187  C          0.94750810       0.17708000       0.03237500
   188  C          0.55249190       0.67708000       0.46762500
   189  H          0.09057100       0.86936200       0.94681400
   190  H          0.40942900       0.36936200       0.55318600
   191  H          0.90942900       0.13063800       0.05318600
   192  H          0.59057100       0.63063800       0.44681400
   193  C          0.90578000       0.77162000       0.96780500
   194  C          0.59422000       0.27162000       0.53219500
   195  C          0.09422000       0.22838000       0.03219500
   196  C          0.40578000       0.72838000       0.46780500
   197  H          0.84073500       0.78103800       0.94702100
   198  H          0.65926500       0.28103800       0.55297900
   199  H          0.15926500       0.21896200       0.05297900
   200  H          0.34073500       0.71896200       0.44702100
   201  C          0.85176820       0.70532000      -0.00147500
   202  C          0.64823180       0.20532000       0.50147500
   203  C          0.14823180       0.29468000       0.00147500
   204  C          0.35176820       0.79468000       0.49852500
   205  C          0.94776820       0.69102000       0.02797500
   206  C          0.55223180       0.19102000       0.47202500
   207  C          0.05223180       0.30898000       0.97202500
   208  C          0.44776820       0.80898000       0.52797500
   209  H          0.91111700       0.64560200       0.04902000
   210  H          0.58888300       0.14560200       0.45098000
   211  H          0.08888300       0.35439800       0.95098000
   212  H          0.41111700       0.85439800       0.54902000
   213  N          0.09331140       0.73984180       0.02784400
   214  N          0.40668860       0.23984180       0.47215600
   215  N          0.90668860       0.26015820       0.97215600
   216  N          0.59331140       0.76015820       0.52784400
   217  N          0.29355180       0.85342000       0.00016600
   218  N          0.20644820       0.35342000       0.49983400
   219  N          0.70644820       0.14658000      -0.00016600
   220  N          0.79355180       0.64658000       0.50016600
   221  Cl         0.66458500       0.64336700      -0.00035200
   222  Cl         0.83541500       0.14336700       0.50035200
   223  Cl         0.33541500       0.35663300       0.00035200
   224  Cl         0.16458500       0.85663300       0.49964800
   225  H          0.34530000       0.85530000       0.02067000
   226  H          0.15470000       0.35530000       0.47933000
   227  H          0.65470000       0.14470000       0.97933000
   228  H          0.84530000       0.64470000       0.52067000
   229  H          0.32820000       0.90430000       0.98284000
   230  H          0.17180000       0.40430000       0.51716000
   231  H          0.67180000       0.09570000       0.01716000
   232  H          0.82820000       0.59570000       0.48284000
