data_OKETAC
_symmetry_space_group_name_H-M    'P1'
_symmetry_Int_Tables_number       1
loop_
_symmetry_equiv_pos_site_id
_symmetry_equiv_pos_as_xyz
1 x,y,z
_cell_length_a                   17.912213
_cell_length_b                   7.42595
_cell_length_c                   12.17658
_cell_angle_alpha                90.0
_cell_angle_beta                 92.3377
_cell_angle_gamma                90.0
loop_
_atom_site_label
_atom_site_type_symbol
_atom_site_fract_x
_atom_site_fract_y
_atom_site_fract_z
     1  O          0.84598600       0.14176140       0.79383800
     2  O          0.15401400       0.64176140       0.70616200
     3  O          0.15401400       0.85823860       0.20616200
     4  O          0.84598600       0.35823860       0.29383800
     5  H          0.87056600       0.23278500       0.80743600
     6  H          0.12943400       0.73278500       0.69256400
     7  H          0.12943400       0.76721500       0.19256400
     8  H          0.87056600       0.26721500       0.30743600
     9  O          0.65923600       0.89803860       0.55885800
    10  O          0.34076400       0.39803860       0.94114200
    11  O          0.34076400       0.10196140       0.44114200
    12  O          0.65923600       0.60196140       0.05885800
    13  H          0.63394300       0.91623000       0.50228000
    14  H          0.36605700       0.41623000      -0.00228000
    15  H          0.36605700       0.08377000       0.49772000
    16  H          0.63394300       0.58377000       0.00228000
    17  O          0.71992600       0.87877850       0.82946800
    18  O          0.28007400       0.37877850       0.67053200
    19  O          0.28007400       0.12122150       0.17053200
    20  O          0.71992600       0.62122150       0.32946800
    21  O          0.78070700       0.73556850       0.70767100
    22  O          0.21929300       0.23556850       0.79232900
    23  O          0.21929300       0.26443150       0.29232900
    24  O          0.78070700       0.76443150       0.20767100
    25  N          0.75081700       0.87079840       0.74151100
    26  N          0.24918300       0.37079840       0.75848900
    27  N          0.24918300       0.12920160       0.25848900
    28  N          0.75081700       0.62920160       0.24151100
    29  C          0.70284800       0.04221190       0.58097110
    30  C          0.29715200       0.54221190       0.91902890
    31  C          0.29715200       0.95778810       0.41902890
    32  C          0.70284800       0.45778810       0.08097110
    33  C          0.75126800       0.03328180       0.67354110
    34  C          0.24873200       0.53328180       0.82645890
    35  C          0.24873200       0.96671820       0.32645890
    36  C          0.75126800       0.46671820       0.17354110
    37  C          0.79998800       0.17128190       0.70537110
    38  C          0.20001200       0.67128190       0.79462890
    39  C          0.20001200       0.82871810       0.29462890
    40  C          0.79998800       0.32871810       0.20537110
    41  C          0.70334800       0.19962000       0.51904110
    42  C          0.29665200       0.69962000       0.98095890
    43  C          0.29665200       0.80038000       0.48095890
    44  C          0.70334800       0.30038000       0.01904110
    45  H          0.67186600       0.21103700       0.45677900
    46  H          0.32813400       0.71103700       0.04322100
    47  H          0.32813400       0.78896300       0.54322100
    48  H          0.67186600       0.28896300       0.95677900
    49  C          0.79905800       0.32735190       0.64239120
    50  C          0.20094200       0.82735190       0.85760880
    51  C          0.20094200       0.67264810       0.35760880
    52  C          0.79905800       0.17264810       0.14239120
    53  H          0.83042300       0.42302100       0.66167700
    54  H          0.16957700       0.92302100       0.83832300
    55  H          0.16957700       0.57697900       0.33832300
    56  H          0.83042300       0.07697900       0.16167700
    57  C          0.75089800       0.33932000       0.55045120
    58  C          0.24910200       0.83932000       0.94954880
    59  C          0.24910200       0.66068000       0.44954880
    60  C          0.75089800       0.16068000       0.05045120
    61  H          0.75051500       0.44410100       0.50866100
    62  H          0.24948500       0.94410100      -0.00866100
    63  H          0.24948500       0.55589900       0.49133900
    64  H          0.75051500       0.05589900       0.00866100
    65  N          0.91348700       0.44416170       0.86049100
    66  N          0.08651300       0.94416170       0.63950900
    67  N          0.08651300       0.55583830       0.13950900
    68  N          0.91348700       0.05583830       0.36049100
    69  C          0.94985800       0.78502000       0.94646110
    70  C          0.05014200       0.28502000       0.55353890
    71  C          0.05014200       0.21498000       0.05353890
    72  C          0.94985800       0.71498000       0.44646110
    73  C          0.00089800       0.68502000       0.88797120
    74  C         -0.00089800       0.18502000       0.61202880
    75  C         -0.00089800       0.31498000       0.11202880
    76  C          0.00089800       0.81498000       0.38797120
    77  H          0.04829300       0.73074700       0.87668100
    78  H          0.95170700       0.23074700       0.62331900
    79  H          0.95170700       0.26925300       0.12331900
    80  H          0.04829300       0.76925300       0.37668100
    81  C          0.98076800       0.51812000       0.84698120
    82  C          0.01923200       0.01812000       0.65301880
    83  C          0.01923200       0.48188000       0.15301880
    84  C          0.98076800      -0.01812000       0.34698120
    85  H          0.01552400       0.45365000       0.80809000
    86  H          0.98447600       0.95365000       0.69191000
    87  H          0.98447600       0.54635000       0.19191000
    88  H          0.01552400       0.04635000       0.30809000
    89  C          0.88026800       0.70792000       0.96030130
    90  C          0.11973200       0.20792000       0.53969870
    91  C          0.11973200       0.29208000       0.03969870
    92  C          0.88026800       0.79208000       0.46030130
    93  H          0.84422700       0.76914600      -0.00142200
    94  H          0.15577300       0.26914600       0.50142200
    95  H          0.15577300       0.23085400       0.00142200
    96  H          0.84422700       0.73085400       0.49857800
    97  C          0.96634900       0.96402000      -0.00734880
    98  C          0.03365100       0.46402000       0.50734880
    99  C          0.03365100       0.03598000       0.00734880
   100  C          0.96634900       0.53598000       0.49265120
   101  C          0.86502800       0.54002000       0.91682130
   102  C          0.13497200       0.04002000       0.58317870
   103  C          0.13497200       0.45998000       0.08317870
   104  C          0.86502800       0.95998000       0.41682130
   105  H          0.81816200       0.49051800       0.92737800
   106  H          0.18183800      -0.00948200       0.57262200
   107  H          0.18183800       0.50948200       0.07262200
   108  H          0.81816200       0.00948200       0.42737800
   109  H          0.92311000       0.03430000       0.01221400
   110  H          0.07689000       0.53430000       0.48778600
   111  H          0.07689000       0.96570000       0.98778600
   112  H          0.92311000       0.46570000       0.51221400
   113  N          0.57684700       0.94382820       0.37171100
   114  N          0.42315300       0.44382820       0.12828900
   115  N          0.42315300       0.05617180       0.62828900
   116  N          0.57684700       0.55617180       0.87171100
   117  C          0.51532800       0.97733810       0.15729110
   118  C          0.48467200       0.47733810       0.34270890
   119  C          0.48467200       0.02266190       0.84270890
   120  C          0.51532800       0.52266190       0.65729110
   121  C          0.48157800      -0.00222000       0.04614120
   122  C          0.51842200       0.49778000       0.45385880
   123  C          0.51842200       0.00222000       0.95385880
   124  C          0.48157800       0.50222000       0.54614120
   125  C          0.61992800       0.95828000       0.28507120
   126  C          0.38007200       0.45828000       0.21492880
   127  C          0.38007200       0.04172000       0.71492880
   128  C          0.61992800       0.54172000       0.78507120
   129  H          0.67148700       0.95826200       0.29763200
   130  H          0.32851300       0.45826200       0.20236800
   131  H          0.32851300       0.04173800       0.70236800
   132  H          0.67148700       0.54173800       0.79763200
   133  C          0.59230800       0.97308000       0.17836120
   134  C          0.40769200       0.47308000       0.32163880
   135  C          0.40769200       0.02692000       0.82163880
   136  C          0.59230800       0.52692000       0.67836120
   137  H          0.62475300       0.98018400       0.12080700
   138  H          0.37524700       0.48018400       0.37919300
   139  H          0.37524700       0.01981600       0.87919300
   140  H          0.62475300       0.51981600       0.62080700
   141  C          0.47049800       0.96348000       0.24730120
   142  C          0.52950200       0.46348000       0.25269880
   143  C          0.52950200       0.03652000       0.75269880
   144  C          0.47049800       0.53652000       0.74730120
   145  H          0.41875300       0.96660000       0.23737100
   146  H          0.58124700       0.46660000       0.26262900
   147  H          0.58124700       0.03340000       0.76262900
   148  H          0.41875300       0.53340000       0.73737100
   149  C          0.50289900       0.94508000       0.35165120
   150  C          0.49710100       0.44508000       0.14834880
   151  C          0.49710100       0.05492000       0.64834880
   152  C          0.50289900       0.55492000       0.85165120
   153  H          0.47185200       0.93308000       0.41059700
   154  H          0.52814800       0.43308000       0.08940300
   155  H          0.52814800       0.06692000       0.58940300
   156  H          0.47185200       0.56692000       0.91059700
   157  H          0.42811000       0.00820000       0.04471300
   158  H          0.57189000       0.50820000       0.45528700
   159  H          0.57189000      -0.00820000       0.95528700
   160  H          0.42811000       0.49180000       0.54471300
