data_OKEYIP
_symmetry_space_group_name_H-M    'P1'
_symmetry_Int_Tables_number       1
loop_
_symmetry_equiv_pos_site_id
_symmetry_equiv_pos_as_xyz
1 x,y,z
_cell_length_a                   7.282115
_cell_length_b                   9.7612
_cell_length_c                   12.3043
_cell_angle_alpha                108.133
_cell_angle_beta                 97.023
_cell_angle_gamma                105.403
loop_
_atom_site_label
_atom_site_type_symbol
_atom_site_fract_x
_atom_site_fract_y
_atom_site_fract_z
     1  S          0.11216700       0.63296500       0.89110300
     2  S          0.88783300       0.36703500       0.10889700
     3  O          0.07882160       0.23557120       0.51808900
     4  O          0.92117840       0.76442880       0.48191100
     5  N         -0.02383820       0.33475140       0.83956110
     6  N          0.02383820       0.66524860       0.16043890
     7  H          0.95820000       0.35920000       0.91219000
     8  H          0.04180000       0.64080000       0.08781000
     9  N          0.08945180       0.40861140       0.69439110
    10  N          0.91054820       0.59138860       0.30560890
    11  H          0.14320000       0.48271600       0.66711500
    12  H          0.85680000       0.51728400       0.33288500
    13  C          0.68943000       0.81308000       0.82587160
    14  C          0.31057000       0.18692000       0.17412840
    15  H          0.79062900       0.82782300       0.89258100
    16  H          0.20937100       0.17217700       0.10741900
    17  H          0.63942700       0.70525000       0.77540100
    18  H          0.36057300       0.29475000       0.22459900
    19  H          0.58219900       0.84507900       0.85468300
    20  H          0.41780100       0.15492100       0.14531700
    21  C          0.77602000       0.90790820       0.75590130
    22  C          0.22398000       0.09209180       0.24409870
    23  H          0.88830100       0.87913800       0.72987500
    24  H          0.11169900       0.12086200       0.27012500
    25  H          0.67664500       0.88743400       0.68526400
    26  H          0.32335500       0.11256600       0.31473600
    27  C          0.84292000       0.07560170       0.83034130
    28  C          0.15708000       0.92439830       0.16965870
    29  H          0.73029300       0.10081300       0.85883800
    30  H          0.26970700       0.89918700       0.14116200
    31  H          0.94306000       0.09381500       0.89993300
    32  H          0.05694000       0.90618500       0.10006700
    33  C          0.92612000       0.18255170       0.77084130
    34  C          0.07388000       0.81744830       0.22915870
    35  C          0.05682000       0.45091180       0.80485130
    36  C          0.94318000       0.54908820       0.19514870
    37  C          0.04282000       0.25994170       0.61738120
    38  C          0.95718000       0.74005830       0.38261880
    39  C          0.95642000       0.14343170       0.66048130
    40  C          0.04358000       0.85656830       0.33951870
    41  H          0.92040400       0.03919900       0.61193200
    42  H          0.07959600       0.96080100       0.38806800
    43  O          0.26536190       0.61703130       0.59310100
    44  O          0.73463810       0.38296870       0.40689900
    45  O          0.25008190       0.43267130       0.42594100
    46  O          0.74991810       0.56732870       0.57405900
    47  H          0.18820000       0.37620000       0.45991600
    48  H          0.81180000       0.62380000       0.54008400
    49  C          0.29872000       0.57644180       0.49492130
    50  C          0.70128000       0.42355820       0.50507870
    51  C          0.39662000       0.68642180       0.44476140
    52  C          0.60338000       0.31357820       0.55523860
    53  H          0.44198300       0.79137500       0.49258700
    54  H          0.55801700       0.20862500       0.50741300
    55  C          0.42542000       0.64746180       0.33622140
    56  C          0.57458000       0.35253820       0.66377860
    57  H          0.38280800       0.54152900       0.29140300
    58  H          0.61719200       0.45847100       0.70859700
    59  C          0.51542000       0.74939180       0.27776130
    60  C          0.48458000       0.25060820       0.72223870
    61  C          0.59822000       0.90685180       0.33469140
    62  C          0.40178000       0.09314820       0.66530860
    63  H          0.60155500       0.95149800       0.41571300
    64  H          0.39844500       0.04850200       0.58428700
    65  C          0.67542000      -0.00149810       0.27453150
    66  C          0.32458000       0.00149810       0.72546850
    67  H          0.72998900       0.10558600       0.31392400
    68  H          0.27001100       0.89441400       0.68607600
    69  C          0.67312000       0.93372000       0.15628150
    70  C          0.32688000       0.06628000       0.84371850
    71  H          0.72516000      -0.00323700       0.11478800
    72  H          0.27484000       0.00323700       0.88521200
    73  C          0.59562000       0.77852000       0.09912150
    74  C          0.40438000       0.22148000       0.90087850
    75  H          0.59609700       0.73446000       0.01862100
    76  H          0.40390300       0.26554000       0.98137900
    77  C          0.51662000       0.68621190       0.15939140
    78  C          0.48338000       0.31378810       0.84060860
    79  H          0.46296100       0.57915300       0.11956100
    80  H          0.53703900       0.42084700       0.88043900
