data_OKITOT
_symmetry_space_group_name_H-M    'P1'
_symmetry_Int_Tables_number       1
loop_
_symmetry_equiv_pos_site_id
_symmetry_equiv_pos_as_xyz
1 x,y,z
_cell_length_a                   8.45112
_cell_length_b                   8.59112
_cell_length_c                   10.89222
_cell_angle_alpha                73.7172
_cell_angle_beta                 84.1572
_cell_angle_gamma                69.5452
loop_
_atom_site_label
_atom_site_type_symbol
_atom_site_fract_x
_atom_site_fract_y
_atom_site_fract_z
     1  O          0.69329140       0.58098870       0.54331100
     2  O          0.30670860       0.41901130       0.45668900
     3  O          0.79195140       0.92987860       0.40866110
     4  O          0.20804860       0.07012140       0.59133890
     5  N          0.33947160       0.75183840       0.39421110
     6  N          0.66052840       0.24816160       0.60578890
     7  H          0.35220000       0.64570000       0.42841800
     8  H          0.64780000       0.35430000       0.57158200
     9  N          0.42320160       0.11257150       0.27087110
    10  N          0.57679840       0.88742850       0.72912890
    11  H          0.32930000       0.13520000       0.24341800
    12  H          0.67070000       0.86480000       0.75658200
    13  C          0.46622180       0.80635830       0.40220120
    14  C          0.53377820       0.19364170       0.59779880
    15  C          0.62545180       0.72393830       0.47038120
    16  C          0.37454820       0.27606170       0.52961880
    17  C          0.67054180       0.88400820       0.41006130
    18  C          0.32945820       0.11599180       0.58993870
    19  C          0.50338170       0.96031830       0.34675120
    20  C          0.49661830       0.03968170       0.65324880
    21  C          0.50891190       0.23767170       0.21265130
    22  C          0.49108810       0.76232830       0.78734870
    23  H          0.60240000       0.21970000       0.26860000
    24  H          0.39760000       0.78030000       0.73140000
    25  H          0.42830000       0.35570000       0.20470000
    26  H          0.57170000       0.64430000       0.79530000
    27  C          0.57831170       0.21930170       0.08199130
    28  C          0.42168830       0.78069830       0.91800870
    29  C          0.73165190       0.09396190       0.06935140
    30  C          0.26834810       0.90603810       0.93064860
    31  H          0.79530000       0.02120000       0.14350000
    32  H          0.20470000       0.97880000       0.85650000
    33  C          0.79295190       0.07382000       0.94975860
    34  C          0.20704810       0.92618000       0.05024140
    35  H          0.89640000       0.98520000       0.94310000
    36  H          0.10360000       0.01480000       0.05690000
    37  C          0.70470170       0.18173170       0.83953870
    38  C          0.29529830       0.81826830       0.16046130
    39  C          0.55005190       0.30540180       0.85232870
    40  C          0.44994810       0.69459820       0.14767130
    41  H          0.48700000       0.37890000       0.77810000
    42  H          0.51300000       0.62110000       0.22190000
    43  C          0.48669180       0.32272180       0.97242860
    44  C          0.51330820       0.67727820       0.02757140
    45  H          0.37960000       0.40620000       0.97960000
    46  H          0.62040000       0.59380000       0.02040000
    47  C          0.78162180       0.16225180       0.71010870
    48  C          0.21837820       0.83774820       0.28989130
    49  H          0.87500000       0.21010000       0.69210000
    50  H          0.12500000       0.78990000       0.30790000
    51  H          0.83020000       0.03820000       0.71370000
    52  H          0.16980000       0.96180000       0.28630000
    53  S          0.94339500       0.39395500       0.19015400
    54  S          0.05660500       0.60604500       0.80984600
    55  O          0.10240150       0.27700150       0.14628100
    56  O          0.89759850       0.72299850       0.85371900
    57  C          0.92637000       0.30483000       0.35548190
    58  C          0.07363000       0.69517000       0.64451810
    59  H          0.82350000       0.37730000       0.38880000
    60  H          0.17650000       0.62270000       0.61120000
    61  H          0.92120000       0.18870000       0.37040000
    62  H          0.07880000       0.81130000       0.62960000
    63  H          0.02500000       0.29870000       0.39920000
    64  H          0.97500000       0.70130000       0.60080000
    65  C          0.98767000       0.57893000       0.19672000
    66  C          0.01233000       0.42107000       0.80328000
    67  H          0.88660000       0.65980000       0.22510000
    68  H          0.11340000       0.34020000       0.77490000
    69  H          0.07990000       0.54450000       0.25700000
    70  H          0.92010000       0.45550000       0.74300000
    71  H          0.02100000       0.63450000       0.11150000
    72  H          0.97900000       0.36550000       0.88850000
