data_OLINOO
_symmetry_space_group_name_H-M    'P1'
_symmetry_Int_Tables_number       1
loop_
_symmetry_equiv_pos_site_id
_symmetry_equiv_pos_as_xyz
1 x,y,z
_cell_length_a                   8.58826
_cell_length_b                   9.05667
_cell_length_c                   13.25699
_cell_angle_alpha                93.9094
_cell_angle_beta                 107.3794
_cell_angle_gamma                107.9824
loop_
_atom_site_label
_atom_site_type_symbol
_atom_site_fract_x
_atom_site_fract_y
_atom_site_fract_z
     1  S          0.15430900       0.74647700       0.02646500
     2  S          0.84569100       0.25352300       0.97353500
     3  S          0.26176800       0.09627700       0.08753500
     4  S          0.73823200       0.90372300       0.91246500
     5  O          0.60127000       0.29003000       0.45659190
     6  O          0.39873000       0.70997000       0.54340810
     7  O          0.72886000       0.52353000       0.55005190
     8  O          0.27114000       0.47647000       0.44994810
     9  N          0.13963000       0.14342000       0.23286160
    10  N          0.86037000       0.85658000       0.76713840
    11  N          0.07482000       0.87622000       0.18694140
    12  N          0.92518000       0.12378000       0.81305860
    13  N         -0.00462000       0.60682000       0.15402150
    14  N          0.00462000       0.39318000       0.84597850
    15  H         -0.01160000       0.52600000       0.11250000
    16  H          0.01160000       0.47400000       0.88750000
    17  N          0.69707000       0.42693000       0.47142000
    18  N          0.30293000       0.57307000       0.52858000
    19  C          0.38394000       0.42563000       0.09382000
    20  C          0.61606000       0.57437000       0.90618000
    21  H          0.35800000       0.51710000       0.11330000
    22  H          0.64200000       0.48290000       0.88670000
    23  H          0.34440000       0.39770000       0.01700000
    24  H          0.65560000       0.60230000       0.98300000
    25  H          0.50720000       0.44830000       0.12210000
    26  H          0.49280000       0.55170000       0.87790000
    27  C          0.29293000       0.29023000       0.13952000
    28  C          0.70707000       0.70977000       0.86048000
    29  C          0.21953000       0.29143000       0.21481190
    30  C          0.78047000       0.70857000       0.78518810
    31  H          0.22190000       0.38350000       0.25180000
    32  H          0.77810000       0.61650000       0.74820000
    33  C          0.14833000       0.02303000       0.17314170
    34  C          0.85167000       0.97697000       0.82685830
    35  C          0.07333000       0.74993000       0.12848170
    36  C          0.92667000       0.25007000       0.87151830
    37  C          0.92537000       0.57033000       0.23640180
    38  C          0.07463000       0.42967000       0.76359820
    39  C          0.95616000       0.67743000       0.32612190
    40  C          0.04384000       0.32257000       0.67387810
    41  H          0.02610000       0.78190000       0.33410000
    42  H         -0.02610000       0.21810000       0.66590000
    43  C          0.88376000       0.62983000       0.40362000
    44  C          0.11624000       0.37017000       0.59638000
    45  H          0.90700000       0.70140000       0.46450000
    46  H          0.09300000       0.29860000       0.53550000
    47  C          0.77757000       0.47673000       0.39045190
    48  C          0.22243000       0.52327000       0.60954810
    49  C          0.74636000       0.36763000       0.30322000
    50  C          0.25364000       0.63237000       0.69678000
    51  H          0.67560000       0.26350000       0.29580000
    52  H          0.32440000       0.73650000       0.70420000
    53  C          0.82117000       0.41453000       0.22692000
    54  C          0.17883000       0.58547000       0.77308000
    55  H          0.80180000       0.34080000       0.16800000
    56  H          0.19820000       0.65920000       0.83200000
    57  H          0.07430000       0.12830000       0.27620000
    58  H          0.92570000       0.87170000       0.72380000
    59  O          0.91282000       0.06882000       0.34718130
    60  O          0.08718000       0.93118000       0.65281870
    61  N          0.66013000       0.91783000       0.35898160
    62  N          0.33987000       0.08217000       0.64101840
    63  C          0.76033000       0.97723000       0.30182000
    64  C          0.23967000       0.02277000       0.69818000
    65  C          0.72944000       0.96074000       0.47639190
    66  C          0.27056000       0.03926000       0.52360810
    67  H          0.85370000      -0.00980000       0.50050000
    68  H          0.14630000       0.00980000       0.49950000
    69  H          0.68130000       0.87210000       0.50720000
    70  H          0.31870000       0.12790000       0.49280000
    71  H          0.69860000       0.04780000       0.49840000
    72  H          0.30140000       0.95220000       0.50160000
    73  C          0.47984000       0.81075000       0.31312000
    74  C          0.52016000       0.18925000       0.68688000
    75  H          0.44740000       0.78860000       0.23640000
    76  H          0.55260000       0.21140000       0.76360000
    77  H          0.40500000       0.85900000       0.33210000
    78  H          0.59500000       0.14100000       0.66790000
    79  H          0.46860000       0.71410000       0.34080000
    80  H          0.53140000       0.28590000       0.65920000
    81  C          0.68714000       0.93094000       0.18122000
    82  C          0.31286000       0.06906000       0.81878000
    83  H          0.76800000      -0.00750000       0.15050000
    84  H          0.23200000       0.00750000       0.84950000
    85  H          0.57910000       0.94960000       0.15490000
    86  H          0.42090000       0.05040000       0.84510000
    87  H          0.66740000       0.82100000       0.16140000
    88  H          0.33260000       0.17900000       0.83860000
