data_OLIPIK
_symmetry_space_group_name_H-M    'P1'
_symmetry_Int_Tables_number       1
loop_
_symmetry_equiv_pos_site_id
_symmetry_equiv_pos_as_xyz
1 x,y,z
_cell_length_a                   9.26537
_cell_length_b                   10.26837
_cell_length_c                   11.44078
_cell_angle_alpha                66.5704
_cell_angle_beta                 80.3875
_cell_angle_gamma                65.2455
loop_
_atom_site_label
_atom_site_type_symbol
_atom_site_fract_x
_atom_site_fract_y
_atom_site_fract_z
     1  C          0.89231600       0.70471600       0.77151200
     2  C          0.10768400       0.29528400       0.22848800
     3  C          0.74121600       0.81671400       0.73291300
     4  C          0.25878400       0.18328600       0.26708700
     5  H          0.69240000       0.89000000       0.77070000
     6  H          0.30760000       0.11000000       0.22930000
     7  C          0.66301300       0.81921500       0.63791400
     8  C          0.33698700       0.18078500       0.36208600
     9  H          0.56190000       0.89420000       0.61210000
    10  H          0.43810000       0.10580000       0.38790000
    11  C          0.73601700       0.70981700       0.58141200
    12  C          0.26398300       0.29018300       0.41858800
    13  C          0.88711700       0.59781500       0.62001300
    14  C          0.11288300       0.40218500       0.37998700
    15  H          0.93590000       0.52460000       0.58230000
    16  H          0.06410000       0.47540000       0.41770000
    17  C          0.96521300       0.59531400       0.71511300
    18  C          0.03478700       0.40468600       0.28488700
    19  H          0.06640000       0.52040000       0.74090000
    20  H          0.93360000       0.47960000       0.25910000
    21  S          0.83657000       0.93917000       0.13596000
    22  S          0.16343000       0.06083000       0.86404000
    23  C          0.07330000       0.82730000       0.28620000
    24  C          0.92670000       0.17270000       0.71380000
    25  C          0.92530000       0.92930000       0.26361900
    26  C          0.07470000       0.07070000       0.73638100
    27  C          0.01430000       0.79620000       0.12220000
    28  C          0.98570000       0.20380000       0.87780000
    29  N          0.97641900       0.69391900       0.86601500
    30  N          0.02358100       0.30608100       0.13398500
    31  H          0.07140000       0.62450000       0.87990000
    32  H          0.92860000       0.37550000       0.12010000
    33  N          0.12520000       0.75020000       0.20171700
    34  N          0.87480000       0.24980000       0.79828300
    35  N          0.03820000       0.73231900       0.03061600
    36  N          0.96180000       0.26768100       0.96938400
    37  H          0.12730000       0.65850000       0.02940000
    38  H          0.87270000       0.34150000       0.97060000
    39  Br         0.80643000       0.06343000       0.35133000
    40  Br         0.19357000       0.93657000       0.64867000
    41  C          0.18230000       0.79130000       0.38620000
    42  C          0.81770000       0.20870000       0.61380000
    43  H          0.27160000       0.81610000       0.34700000
    44  H          0.72840000       0.18390000       0.65300000
    45  H          0.21750000       0.68360000       0.43820000
    46  H          0.78250000       0.31640000       0.56180000
    47  H          0.12590000       0.85120000       0.43810000
    48  H          0.87410000       0.14880000       0.56190000
    49  C          0.92430000       0.78330000       0.94120000
    50  C          0.07570000       0.21670000       0.05880000
    51  O          0.79911700       0.88791700       0.93311300
    52  O          0.20088300       0.11208300       0.06688700
    53  N          0.66030000       0.71030000       0.47920000
    54  N          0.33970000       0.28970000       0.52080000
    55  O          0.73220000       0.61620000       0.42891700
    56  O          0.26780000       0.38380000       0.57108300
    57  O          0.52620000       0.80520000       0.45020000
    58  O          0.47380000       0.19480000       0.54980000
    59  S          0.55037000       0.60408000       0.06987000
    60  S          0.44963000       0.39592000       0.93013000
    61  O          0.72191600       0.52891700       0.04341400
    62  O          0.27808400       0.47108300       0.95658600
    63  C          0.51630000       0.48730000       0.22030000
    64  C          0.48370000       0.51270000       0.77970000
    65  H          0.53230000       0.38890000       0.21900000
    66  H          0.46770000       0.61110000       0.78100000
    67  H          0.40850000       0.53480000       0.24550000
    68  H          0.59150000       0.46520000       0.75450000
    69  H          0.58790000       0.47250000       0.28010000
    70  H          0.41210000       0.52750000       0.71990000
    71  C          0.52730000       0.76430000       0.10520000
    72  C          0.47270000       0.23570000       0.89480000
    73  H          0.59430000       0.73000000       0.17510000
    74  H          0.40570000       0.27000000       0.82490000
    75  H          0.41830000       0.81230000       0.12650000
    76  H          0.58170000       0.18770000       0.87350000
    77  H          0.55610000       0.83590000       0.03150000
    78  H          0.44390000       0.16410000       0.96850000
