data_OMIKAY
_symmetry_space_group_name_H-M    'P1'
_symmetry_Int_Tables_number       1
loop_
_symmetry_equiv_pos_site_id
_symmetry_equiv_pos_as_xyz
1 x,y,z
_cell_length_a                   12.275016
_cell_length_b                   13.062917
_cell_length_c                   19.8633
_cell_angle_alpha                71.0722
_cell_angle_beta                 78.86001
_cell_angle_gamma                70.5822
loop_
_atom_site_label
_atom_site_type_symbol
_atom_site_fract_x
_atom_site_fract_y
_atom_site_fract_z
     1  I          0.54341400       0.52434400       0.35604200
     2  I          0.45658600       0.47565600       0.64395800
     3  I          0.05230500       0.51295600       0.69725300
     4  I          0.94769500       0.48704400       0.30274700
     5  C          0.27815000       0.46055000       0.84773000
     6  C          0.72185000       0.53945000       0.15227000
     7  C          0.41265000       0.15436000       0.44194000
     8  C          0.58735000       0.84564000       0.55806000
     9  C          0.44175000       0.26195000       0.51114000
    10  C          0.55825000       0.73805000       0.48886000
    11  H          0.46830000       0.32100000       0.51360000
    12  H          0.53170000       0.67900000       0.48640000
    13  C          0.39105000       0.20035000       0.57223000
    14  C          0.60895000       0.79965000       0.42777000
    15  C          0.34956000       0.17745000       0.70374000
    16  C          0.65044000       0.82255000       0.29626000
    17  C          0.36176000       0.09296000       0.50234000
    18  C          0.63824000       0.90704000       0.49766000
    19  H          0.33330000       0.03520000       0.49950000
    20  H          0.66670000       0.96480000       0.50050000
    21  C          0.45395000       0.23866000       0.44714000
    22  C          0.54605000       0.76134000       0.55286000
    23  H          0.49080000       0.28020000       0.40590000
    24  H          0.50920000       0.71980000       0.59410000
    25  C          0.35166000       0.11576000       0.56804000
    26  C          0.64834000       0.88424000       0.43196000
    27  H          0.31750000       0.07240000       0.60980000
    28  H          0.68250000       0.92760000       0.39020000
    29  C          0.29466000       0.26046000       0.86974000
    30  C          0.70534000       0.73954000       0.13026000
    31  C          0.34196000       0.18396000       0.82814000
    32  C          0.65804000       0.81604000       0.17186000
    33  C          0.37998000       0.06926000       0.86264000
    34  C          0.62002000       0.93074000       0.13736000
    35  H          0.41140000       0.01660000       0.83520000
    36  H          0.58860000       0.98340000       0.16480000
    37  C          0.32967000       0.10547000       0.97724000
    38  C          0.67033000       0.89453000       0.02276000
    39  H          0.32740000       0.07850000       0.02780000
    40  H          0.67260000       0.92150000       0.97220000
    41  C          0.37248000       0.03057000       0.93654000
    42  C          0.62752000       0.96943000       0.06346000
    43  H          0.39710000       0.95160000       0.95940000
    44  H          0.60290000       0.04840000       0.04060000
    45  C          0.28966000       0.22086000       0.94374000
    46  C          0.71034000       0.77914000       0.05626000
    47  H          0.25860000       0.27260000       0.97160000
    48  H          0.74140000       0.72740000       0.02840000
    49  C          0.37856000       0.05997000       0.36605000
    50  C          0.62144000       0.94003000       0.63395000
    51  H          0.29440000       0.07970000       0.38160000
    52  H          0.70560000       0.92030000       0.61840000
    53  H          0.41590000       0.98270000       0.39520000
    54  H          0.58410000       0.01730000       0.60480000
    55  C          0.39786000       0.06426000       0.28905000
    56  C          0.60214000       0.93574000       0.71095000
    57  H          0.47940000       0.06150000       0.27080000
    58  H          0.52060000       0.93850000       0.72920000
    59  H          0.38260000      -0.00200000       0.28280000
    60  H          0.61740000       0.00200000       0.71720000
    61  C          0.23106000       0.66785000       0.81513000
    62  C          0.76894000       0.33215000       0.18487000
    63  C          0.24126000       0.75456000       0.75263000
    64  C          0.75874000       0.24544000       0.24737000
    65  C          0.25618000       0.86746000       0.82364000
    66  C          0.74382000       0.13254000       0.17636000
    67  H          0.26580000       0.93490000       0.82670000
    68  H          0.73420000       0.06510000       0.17330000
    69  C          0.23206000       0.68226000       0.88223000
    70  C          0.76794000       0.31774000       0.11777000
    71  H          0.22400000       0.62400000       0.92470000
    72  H          0.77600000       0.37600000       0.07530000
    73  C          0.25357000       0.85466000       0.75704000
    74  C          0.74643000       0.14534000       0.24296000
    75  H          0.25990000       0.91380000       0.71480000
    76  H          0.74010000       0.08620000       0.28520000
    77  C          0.24478000       0.78106000       0.88584000
    78  C          0.75522000       0.21894000       0.11416000
    79  H          0.24560000       0.79060000       0.93110000
    80  H          0.75440000       0.20940000       0.06890000
    81  C          0.21745000       0.81255000       0.62273000
    82  C          0.78255000       0.18745000       0.37727000
    83  C          0.28565000       0.75705000       0.44563000
    84  C          0.71435000       0.24295000       0.55437000
    85  H          0.33920000       0.68450000       0.46160000
    86  H          0.66080000       0.31550000       0.53840000
    87  C          0.15125000       0.92575000       0.47043000
    88  C          0.84875000       0.07425000       0.52957000
    89  H          0.11240000       0.96890000       0.50300000
    90  H          0.88760000       0.03110000       0.49700000
    91  C          0.22775000       0.81845000       0.49453000
    92  C          0.77225000       0.18155000       0.50547000
    93  C          0.13136000       0.97006000       0.39823000
    94  C          0.86864000       0.02994000       0.60177000
    95  H          0.07970000       0.04360000       0.38190000
    96  H          0.92030000       0.95640000       0.61810000
    97  C          0.26585000       0.80056000       0.37403000
    98  C          0.73415000       0.19944000       0.62597000
    99  H          0.30580000       0.75820000       0.34110000
   100  H          0.69420000       0.24180000       0.65890000
   101  C          0.18646000       0.90746000       0.35053000
   102  C          0.81354000       0.09254000       0.64947000
   103  C          0.07718000       0.04136000       0.25464000
   104  C          0.92282000       0.95864000       0.74536000
   105  H          0.09230000       0.10880000       0.25870000
   106  H          0.90770000       0.89120000       0.74130000
   107  H          0.00420000       0.03310000       0.28430000
   108  H         -0.00420000       0.96690000       0.71570000
   109  C          0.06679000       0.05437000       0.17814000
   110  C          0.93321000       0.94563000       0.82186000
   111  H          0.00750000       0.12630000       0.15850000
   112  H          0.99250000       0.87370000       0.84150000
   113  H          0.14180000       0.05650000       0.14940000
   114  H          0.85820000       0.94350000       0.85060000
   115  C          0.97122000       0.88457000       0.09894000
   116  C          0.02878000       0.11543000       0.90106000
   117  H          0.91650000       0.86620000       0.14150000
   118  H          0.08350000       0.13380000       0.85850000
   119  H          0.92960000       0.90930000       0.05580000
   120  H          0.07040000       0.09070000       0.94420000
   121  C          0.01329000       0.97767000       0.10194000
   122  C          0.98671000       0.02233000       0.89806000
   123  H          0.08570000       0.97860000       0.06990000
   124  H          0.91430000       0.02140000       0.93010000
   125  H          0.95440000       0.05120000       0.08510000
   126  H          0.04560000       0.94880000       0.91490000
   127  C          0.13977000       0.60457000       0.07984000
   128  C          0.86023000       0.39543000       0.92016000
   129  H          0.20760000       0.62990000       0.05350000
   130  H          0.79240000       0.37010000       0.94650000
   131  H          0.15620000       0.56660000       0.13020000
   132  H          0.84380000       0.43340000       0.86980000
   133  C          0.03457000       0.70616000       0.07664000
   134  C          0.96543000       0.29384000       0.92336000
   135  H          0.00990000       0.73840000       0.02760000
   136  H          0.99010000       0.26160000       0.97240000
   137  H          0.96940000       0.68410000       0.10970000
   138  H          0.03060000       0.31590000       0.89030000
   139  O          0.32094000       0.08994000       0.72113000
   140  O          0.67906000       0.91006000       0.27887000
   141  O          0.16724000       0.91144000       0.61732000
   142  O          0.83276000       0.08856000       0.38268000
   143  O          0.34954000       0.44274000       0.88902000
   144  O          0.65046000       0.55726000       0.11098000
   145  O          0.03415000       0.96174000       0.17352000
   146  O          0.96585000       0.03826000       0.82648000
   147  O          0.17155000       0.94244000       0.27842000
   148  O          0.82845000       0.05756000       0.72158000
   149  O          0.06585000       0.78724000       0.09703000
   150  O          0.93415000       0.21276000       0.90297000
   151  O          0.42794000       0.13914000       0.37503000
   152  O          0.57206000       0.86086000       0.62497000
   153  O          0.32206000       0.16575000       0.24974000
   154  O          0.67794000       0.83425000       0.75026000
   155  N          0.21855000       0.56734000       0.81033000
   156  N          0.78145000       0.43266000       0.18967000
   157  H          0.16930000       0.57310000       0.78140000
   158  H          0.83070000       0.42690000       0.21860000
   159  N          0.25085000       0.37734000       0.83423000
   160  N          0.74915000       0.62266000       0.16577000
   161  H          0.20290000       0.39670000       0.80140000
   162  H          0.79710000       0.60330000       0.19860000
   163  N          0.24845000       0.73285000       0.68673000
   164  N          0.75155000       0.26715000       0.31327000
   165  H          0.27520000       0.66170000       0.68610000
   166  H          0.72480000       0.33830000       0.31390000
   167  N          0.38075000       0.23165000       0.63613000
   168  N          0.61925000       0.76835000       0.36387000
   169  H          0.39690000       0.29470000       0.63070000
   170  H          0.60310000       0.70530000       0.36930000
   171  N          0.25044000       0.76534000       0.56663000
   172  N          0.74956000       0.23466000       0.43337000
   173  H          0.29050000       0.69340000       0.57690000
   174  H          0.70950000       0.30660000       0.42310000
   175  N          0.35486000       0.22895000       0.75303000
   176  N          0.64514000       0.77105000       0.24697000
   177  H          0.36740000       0.29560000       0.73630000
   178  H          0.63260000       0.70440000       0.26370000
   179  O          0.12374000       0.52574000       0.04963000
   180  O          0.87626000       0.47426000       0.95037000
   181  C          0.04316000       0.46756000       0.09224000
   182  C          0.95684000       0.53244000       0.90776000
   183  H          0.96430000       0.51000000       0.07720000
   184  H          0.03570000       0.49000000       0.92280000
   185  H          0.04210000       0.46330000       0.14300000
   186  H          0.95790000       0.53670000       0.85700000
   187  C          0.07487000       0.35297000       0.08475000
   188  C          0.92513000       0.64703000       0.91525000
   189  H          0.00870000       0.32160000       0.10580000
   190  H          0.99130000       0.67840000       0.89420000
   191  H          0.08620000       0.35830000       0.03300000
   192  H          0.91380000       0.64170000       0.96700000
   193  O          0.17715000       0.27445000       0.11695000
   194  O          0.82285000       0.72555000       0.88305000
   195  C          0.35601300       0.17911300       0.16807000
   196  C          0.64398700       0.82088700       0.83193000
   197  H          0.43810000       0.17910000       0.15610000
   198  H          0.56190000       0.82090000       0.84390000
   199  H          0.34820000       0.11390000       0.15620000
   200  H          0.65180000       0.88610000       0.84380000
   201  C          0.27831200       0.28971200       0.12288000
   202  C          0.72168800       0.71028800       0.87712000
   203  H          0.26240000       0.35070000       0.14580000
   204  H          0.73760000       0.64930000       0.85420000
   205  H          0.31870000       0.31260000       0.07470000
   206  H          0.68130000       0.68740000       0.92530000
   207  N          0.87635000       0.65135000       0.50123000
   208  N          0.12365000       0.34865000       0.49877000
   209  N          0.92945000       0.75525000       0.39873000
   210  N          0.07055000       0.24475000       0.60127000
   211  C          0.91486000       0.73007000       0.51444000
   212  C          0.08514000       0.26993000       0.48556000
   213  H          0.91750000       0.73740000       0.56000000
   214  H          0.08250000       0.26260000       0.44000000
   215  C          0.88476000       0.66766000       0.43134000
   216  C          0.11524000       0.33234000       0.56866000
   217  H          0.86320000       0.62520000       0.40800000
   218  H          0.13680000       0.37480000       0.59200000
   219  C          0.94797000       0.79457000       0.45084000
   220  C          0.05203000       0.20543000       0.54916000
   221  H          0.97840000       0.85580000       0.44320000
   222  H          0.02160000       0.14420000       0.55680000
   223  C          0.95067000       0.80118000       0.32164000
   224  C          0.04933000       0.19882000       0.67836000
   225  H          0.94630000       0.74810000       0.29750000
   226  H          0.05370000       0.25190000       0.70250000
   227  H          0.02790000       0.81230000       0.31010000
   228  H          0.97210000       0.18770000       0.68990000
   229  H          0.89190000       0.87370000       0.30540000
   230  H          0.10810000       0.12630000       0.69460000
   231  C          0.82946000       0.56736000       0.55724000
   232  C          0.17054000       0.43264000       0.44276000
   233  H          0.75720000       0.60710000       0.58160000
   234  H          0.24280000       0.39290000       0.41840000
   235  H          0.88600000       0.52460000       0.59310000
   236  H          0.11400000       0.47540000       0.40690000
   237  C          0.80317000       0.48486000       0.52824000
   238  C          0.19683000       0.51514000       0.47176000
   239  H          0.74660000       0.52660000       0.49280000
   240  H          0.25340000       0.47340000       0.50720000
   241  H          0.77090000       0.43160000       0.56750000
   242  H          0.22910000       0.56840000       0.43250000
   243  H          0.87470000       0.44310000       0.50550000
   244  H          0.12530000       0.55690000       0.49450000
   245  N          0.38328000       0.46521100       0.22764000
   246  N          0.61672000       0.53478900       0.77236000
   247  C          0.40728000       0.56501200       0.19234000
   248  C          0.59272000       0.43498800       0.80766000
   249  H          0.47870000       0.57440000       0.16670000
   250  H          0.52130000       0.42560000       0.83330000
   251  N          0.31491000       0.64311100       0.20075000
   252  N          0.68509000       0.35688900       0.79925000
   253  C          0.23039000       0.59671300       0.24265000
   254  C          0.76961000       0.40328700       0.75735000
   255  H          0.15420000       0.63540000       0.25840000
   256  H          0.84580000       0.36460000       0.74160000
   257  C          0.47241000       0.35351100       0.23335000
   258  C          0.52759000       0.64648900       0.76665000
   259  H          0.52400000       0.33960000       0.26930000
   260  H          0.47600000       0.66040000       0.73070000
   261  H          0.51790000       0.35370000       0.18690000
   262  H          0.48210000       0.64630000       0.81310000
   263  H          0.43410000       0.29380000       0.24740000
   264  H          0.56590000       0.70620000       0.75260000
   265  C          0.28111500       0.48020000       0.25656000
   266  C          0.71888500       0.51980000       0.74344000
   267  H          0.24510000       0.42280000       0.28280000
   268  H          0.75490000       0.57720000       0.71720000
   269  C          0.30921500       0.74961600       0.17591000
   270  C          0.69078500       0.25038400       0.82409000
   271  H          0.25630000       0.78160000       0.21330000
   272  H          0.74370000       0.21840000       0.78670000
   273  H          0.26210000       0.77480000       0.13510000
   274  H          0.73790000       0.22520000       0.86490000
   275  C          0.38191500       0.81751500       0.15249000
   276  C          0.61808500       0.18248500       0.84751000
   277  H          0.44220000       0.79100000       0.18510000
   278  H          0.55780000       0.20900000       0.81490000
   279  H          0.33700000       0.89570000       0.15090000
   280  H          0.66300000       0.10430000       0.84910000
   281  H          0.41810000       0.81410000       0.10430000
   282  H          0.58190000       0.18590000       0.89570000
