data_OMIRIO
_symmetry_space_group_name_H-M    'P1'
_symmetry_Int_Tables_number       1
loop_
_symmetry_equiv_pos_site_id
_symmetry_equiv_pos_as_xyz
1 x,y,z
_cell_length_a                   8.008501
_cell_length_b                   11.574301
_cell_length_c                   27.26303
_cell_angle_alpha                90.0
_cell_angle_beta                 94.62901
_cell_angle_gamma                90.0
loop_
_atom_site_label
_atom_site_type_symbol
_atom_site_fract_x
_atom_site_fract_y
_atom_site_fract_z
     1  O          0.68013870       0.63830110       0.82235400
     2  O          0.81986130       0.13830110       0.67764600
     3  O          0.31986130       0.36169890       0.17764600
     4  O          0.18013870       0.86169890       0.32235400
     5  O          0.85608860       0.53655110       0.76125400
     6  O          0.64391140       0.03655110       0.73874600
     7  O          0.14391140       0.46344890       0.23874600
     8  O          0.35608860       0.96344890       0.26125400
     9  N          0.42365160       0.41194110       0.86324500
    10  N          0.07634840       0.91194110       0.63675500
    11  N          0.57634840       0.58805890       0.13675500
    12  N          0.92365160       0.08805890       0.36324500
    13  H          0.40530000       0.39090000       0.83220000
    14  H          0.09470000       0.89090000       0.66780000
    15  H          0.59470000       0.60910000       0.16780000
    16  H          0.90530000       0.10910000       0.33220000
    17  N          0.93979160       0.35836120       0.00581500
    18  N          0.56020840       0.85836120       0.49418500
    19  N          0.06020840       0.64163880       0.99418500
    20  N          0.43979160       0.14163880       0.50581500
    21  H          0.03880000       0.32510000       0.00730000
    22  H          0.46120000       0.82510000       0.49270000
    23  H          0.96120000       0.67490000       0.99270000
    24  H          0.53880000       0.17490000       0.50730000
    25  C          0.89558820       0.61549130       0.89013600
    26  C          0.60441180       0.11549130       0.60986400
    27  C          0.10441180       0.38450870       0.10986400
    28  C          0.39558820       0.88450870       0.39013600
    29  H          0.83060000       0.65480000       0.91250000
    30  H          0.66940000       0.15480000       0.58750000
    31  H          0.16940000       0.34520000       0.08750000
    32  H          0.33060000       0.84520000       0.41250000
    33  C          0.83306810       0.60075140       0.84221600
    34  C          0.66693190       0.10075140       0.65778400
    35  C          0.16693190       0.39924860       0.15778400
    36  C          0.33306810       0.89924860       0.34221600
    37  C          0.92993810       0.54268140       0.80826600
    38  C          0.57006190       0.04268140       0.69173400
    39  C          0.07006190       0.45731860       0.19173400
    40  C          0.42993810       0.95731860       0.30826600
    41  C          0.08459190       0.49927140       0.82351600
    42  C          0.41540810      -0.00072860       0.67648400
    43  C          0.91540810       0.50072860       0.17648400
    44  C          0.58459190       0.00072860       0.32351600
    45  H          0.14760000       0.45930000       0.80080000
    46  H          0.35240000       0.95930000       0.69920000
    47  H          0.85240000       0.54070000       0.19920000
    48  H          0.64760000       0.04070000       0.30080000
    49  C          0.15125180       0.51355130       0.87278500
    50  C          0.34874820       0.01355130       0.62721500
    51  C          0.84874820       0.48644870       0.12721500
    52  C          0.65125180       0.98644870       0.37278500
    53  C          0.31297180       0.47125130       0.89022500
    54  C          0.18702820       0.97125130       0.60977500
    55  C          0.68702820       0.52874870       0.10977500
    56  C          0.81297180       0.02874870       0.39022500
    57  C          0.38510180       0.48715130       0.93822500
    58  C          0.11489820       0.98715130       0.56177500
    59  C          0.61489820       0.51284870       0.06177500
    60  C          0.88510180       0.01284870       0.43822500
    61  C          0.54936180       0.43663130       0.93988500
    62  C          0.95063820       0.93663130       0.56011500
    63  C          0.45063820       0.56336870       0.06011500
    64  C          0.04936180       0.06336870       0.43988500
    65  C          0.56807180       0.39080130       0.89297500
    66  C          0.93192820       0.89080130       0.60702500
    67  C          0.43192820       0.60919870       0.10702500
    68  C          0.06807180       0.10919870       0.39297500
    69  C          0.71321190       0.33000130       0.87995500
    70  C          0.78678810       0.83000130       0.62004500
    71  C          0.28678810       0.66999870       0.12004500
    72  C          0.21321190       0.16999870       0.37995500
    73  C          0.72702000       0.28072140       0.83297600
    74  C          0.77298000       0.78072140       0.66702400
    75  C          0.27298000       0.71927860       0.16702400
    76  C          0.22702000       0.21927860       0.33297600
    77  H          0.63720000       0.28890000       0.80820000
    78  H          0.86280000       0.78890000       0.69180000
    79  H          0.36280000       0.71110000       0.19180000
    80  H          0.13720000       0.21110000       0.30820000
    81  C          0.86822000       0.22119150       0.82259600
    82  C          0.63178000       0.72119150       0.67740400
    83  C          0.13178000       0.77880850       0.17740400
    84  C          0.36822000       0.27880850       0.32259600
    85  H          0.87530000       0.18810000       0.79090000
    86  H          0.62470000       0.68810000       0.70910000
    87  H          0.12470000       0.81190000       0.20910000
    88  H          0.37530000       0.31190000       0.29090000
    89  C          0.00262000       0.20929140       0.85886600
    90  C          0.49738000       0.70929140       0.64113400
    91  C         -0.00262000       0.79070860       0.14113400
    92  C          0.50262000       0.29070860       0.35886600
    93  H          0.10080000       0.16910000       0.85140000
    94  H          0.39920000       0.66910000       0.64860000
    95  H          0.89920000       0.83090000       0.14860000
    96  H          0.60080000       0.33090000       0.35140000
    97  C         -0.00731810       0.25545140       0.90499600
    98  C          0.50731810       0.75545140       0.59500400
    99  C          0.00731810       0.74454860       0.09500400
   100  C          0.49268190       0.24454860       0.40499600
   101  H          0.08410000       0.24640000       0.92910000
   102  H          0.41590000       0.74640000       0.57090000
   103  H          0.91590000       0.75360000       0.07090000
   104  H          0.58410000       0.25360000       0.42910000
   105  C          0.84834180       0.31623130       0.91698500
   106  C          0.65165820       0.81623130       0.58301500
   107  C          0.15165820       0.68376870       0.08301500
   108  C          0.34834180       0.18376870       0.41698500
   109  C          0.82812180       0.36396130       0.96455500
   110  C          0.67187820       0.86396130       0.53544500
   111  C          0.17187820       0.63603870       0.03544500
   112  C          0.32812180       0.13603870       0.46455500
   113  C          0.68448180       0.42283130       0.97668500
   114  C          0.81551820       0.92283130       0.52331500
   115  C          0.31551820       0.57716870       0.02331500
   116  C          0.18448180       0.07716870       0.47668500
   117  C          0.71115180       0.45422130       0.02756600
   118  C          0.78884820       0.95422130       0.47243400
   119  C          0.28884820       0.54577870       0.97243400
   120  C          0.21115180       0.04577870       0.52756600
   121  C          0.87067180       0.41338130       0.04430500
   122  C          0.62932820       0.91338130       0.45569500
   123  C          0.12932820       0.58661870       0.95569500
   124  C          0.37067180       0.08661870       0.54430500
   125  C          0.57728000       0.69509160       0.85522600
   126  C          0.92272000       0.19509160       0.64477400
   127  C          0.42272000       0.30490840       0.14477400
   128  C          0.07728000       0.80490840       0.35522600
   129  H          0.46740000       0.71140000       0.83820000
   130  H          0.03260000       0.21140000       0.66180000
   131  H          0.53260000       0.28860000       0.16180000
   132  H          0.96740000       0.78860000       0.33820000
   133  H          0.63050000       0.76770000       0.86640000
   134  H          0.86950000       0.26770000       0.63360000
   135  H          0.36950000       0.23230000       0.13360000
   136  H          0.13050000       0.73230000       0.36640000
   137  H          0.56340000       0.64520000       0.88360000
   138  H          0.93660000       0.14520000       0.61640000
   139  H          0.43660000       0.35480000       0.11640000
   140  H          0.06340000       0.85480000       0.38360000
   141  C          0.94418000       0.47469170       0.72623600
   142  C          0.55582000       0.97469170       0.77376400
   143  C          0.05582000       0.52530830       0.27376400
   144  C          0.44418000       0.02530830       0.22623600
   145  H          0.88050000       0.47770000       0.69400000
   146  H          0.61950000       0.97770000       0.80600000
   147  H          0.11950000       0.52230000       0.30600000
   148  H          0.38050000       0.02230000       0.19400000
   149  H          0.95800000       0.39400000       0.73670000
   150  H          0.54200000       0.89400000       0.76330000
   151  H          0.04200000       0.60600000       0.26330000
   152  H          0.45800000       0.10600000       0.23670000
   153  H          0.05460000       0.50980000       0.72390000
   154  H          0.44540000       0.00980000       0.77610000
   155  H          0.94540000       0.49020000       0.27610000
   156  H          0.55460000      -0.00980000       0.22390000
   157  C          0.05640180       0.57265130       0.90656600
   158  C          0.44359820       0.07265130       0.59343400
   159  C          0.94359820       0.42734870       0.09343400
   160  C          0.55640180       0.92734870       0.40656600
   161  Cl         0.60745500       0.41665400       0.54897200
   162  Cl         0.89254500       0.91665400       0.95102800
   163  Cl         0.39254500       0.58334600       0.45102800
   164  Cl         0.10745500       0.08334600       0.04897200
   165  Cl         0.87136500       0.24598400       0.50878200
   166  Cl         0.62863500       0.74598400       0.99121800
   167  Cl         0.12863500       0.75401600       0.49121800
   168  Cl         0.37136500       0.25401600       0.00878200
   169  C          0.82028000       0.44516150       0.55845600
   170  C          0.67972000       0.94516150       0.94154400
   171  C          0.17972000       0.55483850       0.44154400
   172  C          0.32028000       0.05483850       0.05845600
   173  C          0.87318000       0.54372160       0.58365700
   174  C          0.62682000       0.04372160       0.91634300
   175  C          0.12682000       0.45627840       0.41634300
   176  C          0.37318000       0.95627840       0.08365700
   177  H          0.79370000       0.59470000       0.59610000
   178  H          0.70630000       0.09470000       0.90390000
   179  H          0.20630000       0.40530000       0.40390000
   180  H          0.29370000       0.90530000       0.09610000
   181  C          0.04373000       0.56806170       0.59077700
   182  C          0.45627000       0.06806170       0.90922300
   183  C          0.95627000       0.43193830       0.40922300
   184  C          0.54373000       0.93193830       0.09077700
   185  H          0.08080000       0.63600000       0.60790000
   186  H          0.41920000       0.13600000       0.89210000
   187  H          0.91920000       0.36400000       0.39210000
   188  H          0.58080000       0.86400000       0.10790000
   189  C          0.15922000       0.49313180       0.57284700
   190  C          0.34078000      -0.00686820       0.92715300
   191  C          0.84078000       0.50686820       0.42715300
   192  C          0.65922000       0.00686820       0.07284700
   193  H          0.27540000       0.51000000       0.57770000
   194  H          0.22460000       0.01000000       0.92230000
   195  H          0.72460000       0.49000000       0.42230000
   196  H          0.77540000      -0.01000000       0.07770000
   197  C          0.10602000       0.39366170       0.54790600
   198  C          0.39398000       0.89366170       0.95209400
   199  C          0.89398000       0.60633830       0.45209400
   200  C          0.60602000       0.10633830       0.04790600
   201  H          0.18540000       0.34210000       0.53590000
   202  H          0.31460000       0.84210000       0.96410000
   203  H          0.81460000       0.65790000       0.46410000
   204  H          0.68540000       0.15790000       0.03590000
   205  C          0.93598000       0.36992150       0.54058600
   206  C          0.56402000       0.86992150       0.95941400
   207  C          0.06402000       0.63007850       0.45941400
   208  C          0.43598000       0.13007850       0.04058600
   209  O          0.37104150       0.37856110       0.75983400
   210  O          0.12895850       0.87856110       0.74016600
   211  O          0.62895850       0.62143890       0.24016600
   212  O          0.87104150       0.12143890       0.25983400
   213  C          0.45802000       0.46113160       0.73130600
   214  C          0.04198000       0.96113160       0.76869400
   215  C          0.54198000       0.53886840       0.26869400
   216  C          0.95802000       0.03886840       0.23130600
   217  H          0.56240000       0.48750000       0.74980000
   218  H          0.93760000       0.98750000       0.75020000
   219  H          0.43760000       0.51250000       0.25020000
   220  H          0.06240000       0.01250000       0.24980000
   221  H          0.38630000       0.52920000       0.72300000
   222  H          0.11370000       0.02920000       0.77700000
   223  H          0.61370000       0.47080000       0.27700000
   224  H          0.88630000       0.97080000       0.22300000
   225  C          0.49702000       0.39722170       0.68507700
   226  C          0.00298000       0.89722170       0.81492300
   227  C          0.50298000       0.60277830       0.31492300
   228  C         -0.00298000       0.10277830       0.18507700
   229  H          0.60290000       0.35320000       0.69020000
   230  H          0.89710000       0.85320000       0.80980000
   231  H          0.39710000       0.64680000       0.30980000
   232  H          0.10290000       0.14680000       0.19020000
   233  H          0.50370000       0.45070000       0.65700000
   234  H         -0.00370000       0.95070000       0.84300000
   235  H          0.49630000       0.54930000       0.34300000
   236  H          0.00370000       0.04930000       0.15700000
   237  C          0.34642000       0.31700160       0.67731600
   238  C          0.15358000       0.81700160       0.82268400
   239  C          0.65358000       0.68299840       0.32268400
   240  C          0.84642000       0.18299840       0.17731600
   241  H          0.24620000       0.35840000       0.66270000
   242  H          0.25380000       0.85840000       0.83730000
   243  H          0.75380000       0.64160000       0.33730000
   244  H          0.74620000       0.14160000       0.16270000
   245  H          0.37020000       0.25050000       0.65620000
   246  H          0.12980000       0.75050000       0.84380000
   247  H          0.62980000       0.74950000       0.34380000
   248  H          0.87020000       0.24950000       0.15620000
   249  C          0.32502000       0.27943150       0.72972600
   250  C          0.17498000       0.77943150       0.77027400
   251  C          0.67498000       0.72056850       0.27027400
   252  C          0.82502000       0.22056850       0.22972600
   253  H          0.20750000       0.25690000       0.73350000
   254  H          0.29250000       0.75690000       0.76650000
   255  H          0.79250000       0.74310000       0.26650000
   256  H          0.70750000       0.24310000       0.23350000
   257  H          0.39880000       0.21300000       0.73900000
   258  H          0.10120000       0.71300000       0.76100000
   259  H          0.60120000       0.78700000       0.26100000
   260  H          0.89880000       0.28700000       0.23900000
