data_ONAPUP
_symmetry_space_group_name_H-M    'P1'
_symmetry_Int_Tables_number       1
loop_
_symmetry_equiv_pos_site_id
_symmetry_equiv_pos_as_xyz
1 x,y,z
_cell_length_a                   6.75963
_cell_length_b                   25.349711
_cell_length_c                   7.95373
_cell_angle_alpha                90.0
_cell_angle_beta                 118.4083
_cell_angle_gamma                90.0
loop_
_atom_site_label
_atom_site_type_symbol
_atom_site_fract_x
_atom_site_fract_y
_atom_site_fract_z
     1  Cl        -0.00120880       0.31158300       0.48286120
     2  Cl         0.00120880       0.81158300       0.01713880
     3  Cl         0.00120880       0.68841700       0.51713880
     4  Cl        -0.00120880       0.18841700      -0.01713880
     5  O          0.51703000       0.41153700       0.51652000
     6  O          0.48297000       0.91153700      -0.01652000
     7  O          0.48297000       0.58846300       0.48348000
     8  O          0.51703000       0.08846300       0.01652000
     9  H          0.56520000       0.42530000       0.62190000
    10  H          0.43480000       0.92530000       0.87810000
    11  H          0.43480000       0.57470000       0.37810000
    12  H          0.56520000       0.07470000       0.12190000
    13  O          0.74545000       0.34758900       0.68413000
    14  O          0.25455000       0.84758900       0.81587000
    15  O          0.25455000       0.65241100       0.31587000
    16  O          0.74545000       0.15241100       0.18413000
    17  C          0.61894000       0.36686100       0.53303000
    18  C          0.38106000       0.86686100       0.96697000
    19  C          0.38106000       0.63313900       0.46697000
    20  C          0.61894000       0.13313900       0.03303000
    21  C          0.56034000       0.34119900       0.34633000
    22  C          0.43966000       0.84119900       0.15367000
    23  C          0.43966000       0.65880100       0.65367000
    24  C          0.56034000       0.15880100       0.84633000
    25  C          0.34104000       0.34276100       0.20014000
    26  C          0.65896000       0.84276100       0.29986000
    27  C          0.65896000       0.65723900       0.79986000
    28  C          0.34104000       0.15723900       0.70014000
    29  H          0.23410000       0.36150000       0.21780000
    30  H          0.76590000       0.86150000       0.28220000
    31  H          0.76590000       0.63850000       0.78220000
    32  H          0.23410000       0.13850000       0.71780000
    33  C          0.27665000       0.31731110       0.02914000
    34  C          0.72335000       0.81731110       0.47086000
    35  C          0.72335000       0.68268890       0.97086000
    36  C          0.27665000       0.18268890       0.52914000
    37  H          0.12800000       0.31870000       0.93290000
    38  H          0.87200000       0.81870000       0.56710000
    39  H          0.87200000       0.68130000       0.06710000
    40  H          0.12800000       0.18130000       0.43290000
    41  C          0.43426000       0.28993120       0.00234000
    42  C          0.56574000       0.78993120       0.49766000
    43  C          0.56574000       0.71006880      -0.00234000
    44  C          0.43426000       0.21006880       0.50234000
    45  H          0.39180000       0.27250000       0.88720000
    46  H          0.60820000       0.77250000       0.61280000
    47  H          0.60820000       0.72750000       0.11280000
    48  H          0.39180000       0.22750000       0.38720000
    49  C          0.65336000       0.28794110       0.14304000
    50  C          0.34664000       0.78794110       0.35696000
    51  C          0.34664000       0.71205890       0.85696000
    52  C          0.65336000       0.21205890       0.64304000
    53  H          0.75950000       0.26950000       0.12320000
    54  H          0.24050000       0.76950000       0.37680000
    55  H          0.24050000       0.73050000       0.87680000
    56  H          0.75950000       0.23050000       0.62320000
    57  C          0.71604000       0.31338900       0.31454000
    58  C          0.28396000       0.81338900       0.18546000
    59  C          0.28396000       0.68661100       0.68546000
    60  C          0.71604000       0.18661100       0.81454000
    61  N          0.66803000       0.45489800       0.85233000
    62  N          0.33197000       0.95489800       0.64767000
    63  N          0.33197000       0.54510200       0.14767000
    64  N          0.66803000       0.04510200       0.35233000
    65  C          0.75124000       0.42258100       0.00193000
    66  C          0.24876000       0.92258100       0.49807000
    67  C          0.24876000       0.57741900      -0.00193000
    68  C          0.75124000       0.07741900       0.50193000
    69  H          0.74010000       0.38640000       0.97990000
    70  H          0.25990000       0.88640000       0.52010000
    71  H          0.25990000       0.61360000       0.02010000
    72  H          0.74010000       0.11360000       0.47990000
    73  C          0.85274000       0.44014100       0.18693000
    74  C          0.14726000       0.94014100       0.31307000
    75  C          0.14726000       0.55985900       0.81307000
    76  C          0.85274000       0.05985900       0.68693000
    77  H          0.90830000       0.41610000       0.28740000
    78  H          0.09170000       0.91610000       0.21260000
    79  H          0.09170000       0.58390000       0.71260000
    80  H          0.90830000       0.08390000       0.78740000
    81  C          0.87214000       0.49377100       0.22383000
    82  C          0.12786000       0.99377100       0.27617000
    83  C          0.12786000       0.50622900       0.77617000
    84  C          0.87214000       0.00622900       0.72383000
    85  C          0.78654000       0.52723100       0.06843000
    86  C          0.21346000       0.02723100       0.43157000
    87  C          0.21346000       0.47276900       0.93157000
    88  C          0.78654000       0.97276900       0.56843000
    89  H          0.79610000       0.56360000       0.08640000
    90  H          0.20390000       0.06360000       0.41360000
    91  H          0.20390000       0.43640000       0.91360000
    92  H          0.79610000       0.93640000       0.58640000
    93  C          0.68704000       0.50665100       0.88713000
    94  C          0.31296000       0.00665100       0.61287000
    95  C          0.31296000       0.49334900       0.11287000
    96  C          0.68704000       0.99334900       0.38713000
    97  H          0.63040000       0.52980000       0.78390000
    98  H          0.36960000       0.02980000       0.71610000
    99  H          0.36960000       0.47020000       0.21610000
   100  H          0.63040000       0.97020000       0.28390000
   101  C         -0.01704000       0.51650120       0.42364000
   102  C          0.01704000       0.01650120       0.07636000
   103  C          0.01704000       0.48349880       0.57636000
   104  C         -0.01704000       0.98349880       0.92364000
   105  H          0.12820000       0.53040000       0.44890000
   106  H          0.87180000       0.03040000       0.05110000
   107  H          0.87180000       0.46960000       0.55110000
   108  H          0.12820000       0.96960000       0.94890000
   109  H          0.89280000       0.54620000       0.42420000
   110  H          0.10720000       0.04620000       0.07580000
   111  H          0.10720000       0.45380000       0.57580000
   112  H          0.89280000       0.95380000       0.92420000
