data_OPEKAW
_symmetry_space_group_name_H-M    'P1'
_symmetry_Int_Tables_number       1
loop_
_symmetry_equiv_pos_site_id
_symmetry_equiv_pos_as_xyz
1 x,y,z
_cell_length_a                   12.3888
_cell_length_b                   13.3438
_cell_length_c                   13.4499
_cell_angle_alpha                90.0
_cell_angle_beta                 111.32116
_cell_angle_gamma                90.0
loop_
_atom_site_label
_atom_site_type_symbol
_atom_site_fract_x
_atom_site_fract_y
_atom_site_fract_z
     1  C          0.83338000       0.23092000       0.59042000
     2  C          0.66662000       0.73092000       0.90958000
     3  C          0.16662000       0.76908000       0.40958000
     4  C          0.33338000       0.26908000       0.09042000
     5  H          0.87440000       0.22530000       0.54490000
     6  H          0.62560000       0.72530000       0.95510000
     7  H          0.12560000       0.77470000       0.45510000
     8  H          0.37440000       0.27470000       0.04490000
     9  C          0.97728000       0.35565190       0.70294190
    10  C          0.52272000       0.85565190       0.79705810
    11  C          0.02272000       0.64434810       0.29705810
    12  C          0.47728000       0.14434810       0.20294190
    13  C          0.87328000       0.29833180       0.67823180
    14  C          0.62672000       0.79833180       0.82176820
    15  C          0.12672000       0.70166820       0.32176820
    16  C          0.37328000       0.20166820       0.17823180
    17  C          0.80833810       0.30512170       0.74761190
    18  C          0.69166190       0.80512170       0.75238810
    19  C          0.19166190       0.69487830       0.25238810
    20  C          0.30833810       0.19487830       0.24761190
    21  C          0.84978000       0.36859180       0.83952180
    22  C          0.65022000       0.86859180       0.66047820
    23  C          0.15022000       0.63140820       0.16047820
    24  C          0.34978000       0.13140820       0.33952180
    25  C          0.70668000       0.24532000       0.72332000
    26  C          0.79332000       0.74532000       0.77668000
    27  C          0.29332000       0.75468000       0.27668000
    28  C          0.20668000       0.25468000       0.22332000
    29  H          0.66290000       0.24960000       0.76650000
    30  H          0.83710000       0.74960000       0.73350000
    31  H          0.33710000       0.75040000       0.23350000
    32  H          0.16290000       0.25040000       0.26650000
    33  O          0.00068810       0.35413180       0.53469170
    34  O          0.49931190       0.85413180       0.96530830
    35  O         -0.00068810       0.64586820       0.46530830
    36  O          0.50068810       0.14586820       0.03469170
    37  C          0.95278000       0.41752000       0.86192000
    38  C          0.54722000       0.91752000       0.63808000
    39  C          0.04722000       0.58248000       0.13808000
    40  C          0.45278000       0.08248000       0.36192000
    41  H          0.98200000       0.45560000       0.92400000
    42  H          0.51800000       0.95560000       0.57600000
    43  H          0.01800000       0.54440000       0.07600000
    44  H          0.48200000       0.04440000       0.42400000
    45  C          0.67237000       0.18192000       0.63792000
    46  C          0.82763000       0.68192000       0.86208000
    47  C          0.32763000       0.81808000       0.36208000
    48  C          0.17237000       0.31808000       0.13792000
    49  H          0.60590000       0.14340000       0.62380000
    50  H          0.89410000       0.64340000       0.87620000
    51  H          0.39410000       0.85660000       0.37620000
    52  H          0.10590000       0.35660000       0.12380000
    53  C          0.04577000       0.36052000       0.63122000
    54  C          0.45423000       0.86052000       0.86878000
    55  C          0.95423000       0.63948000       0.36878000
    56  C          0.54577000       0.13948000       0.13122000
    57  C          0.73627000       0.17432000       0.57152000
    58  C          0.76373000       0.67432000       0.92848000
    59  C          0.26373000       0.82568000       0.42848000
    60  C          0.23627000       0.32568000       0.07152000
    61  H          0.71250000       0.13020000       0.51400000
    62  H          0.78750000       0.63020000       0.98600000
    63  H          0.28750000       0.86980000       0.48600000
    64  H          0.21250000       0.36980000       0.01400000
    65  O          0.84576850       0.40064150       0.01050150
    66  O          0.65423150       0.90064150       0.48949850
    67  O          0.15423150       0.59935850      -0.01050150
    68  O          0.34576850       0.09935850       0.51050150
    69  O          0.15472820       0.37832160       0.68052150
    70  O          0.34527180       0.87832160       0.81947850
    71  O          0.84527180       0.62167840       0.31947850
    72  O          0.65472820       0.12167840       0.18052150
    73  O          0.67688830       0.39705150       0.87487150
    74  O          0.82311170       0.89705150       0.62512850
    75  O          0.32311170       0.60294850       0.12512850
    76  O          0.17688830       0.10294850       0.37487150
    77  C          0.78288000       0.38849190       0.91152000
    78  C          0.71712000       0.88849190       0.58848000
    79  C          0.21712000       0.61150810       0.08848000
    80  C          0.28288000       0.11150810       0.41152000
    81  C          0.01568000       0.41192000       0.79392000
    82  C          0.48432000       0.91192000       0.70608000
    83  C          0.98432000       0.58808000       0.20608000
    84  C          0.51568000       0.08808000       0.29392000
    85  H          0.08490000       0.44720000       0.81110000
    86  H          0.41510000       0.94720000       0.68890000
    87  H          0.91510000       0.55280000       0.18890000
    88  H          0.58490000       0.05280000       0.31110000
    89  H          0.78770000       0.40920000       0.06630000
    90  H          0.71230000       0.90920000       0.43370000
    91  H          0.21230000       0.59080000       0.93370000
    92  H          0.28770000       0.09080000       0.56630000
    93  H          0.20570000       0.38820000       0.63030000
    94  H          0.29430000       0.88820000       0.86970000
    95  H          0.79430000       0.61180000       0.36970000
    96  H          0.70570000       0.11180000       0.13030000
    97  N          0.73278000       0.41082180       0.13652180
    98  N          0.76722000       0.91082180       0.36347820
    99  N          0.26722000       0.58917820       0.86347820
   100  N          0.23278000       0.08917820       0.63652180
   101  C          0.45328000       0.42622000       0.34302000
   102  C          0.04672000       0.92622000       0.15698000
   103  C          0.54672000       0.57378000       0.65698000
   104  C          0.95328000       0.07378000       0.84302000
   105  H          0.41630000       0.46500000       0.28280000
   106  H          0.08370000       0.96500000       0.21720000
   107  H          0.58370000       0.53500000       0.71720000
   108  H          0.91630000       0.03500000       0.78280000
   109  C          0.43838000       0.35998190       0.51232000
   110  C          0.06162000       0.85998190       0.98768000
   111  C          0.56162000       0.64001810       0.48768000
   112  C          0.93838000       0.14001810       0.01232000
   113  H          0.51020000       0.32890000       0.53020000
   114  H         -0.01020000       0.82890000       0.96980000
   115  H          0.48980000       0.67110000       0.46980000
   116  H          0.01020000       0.17110000       0.03020000
   117  C          0.39348000       0.41414180       0.41864190
   118  C          0.10652000       0.91414180       0.08135810
   119  C          0.60652000       0.58585820       0.58135810
   120  C          0.89348000       0.08585820       0.91864190
   121  C          0.71997000       0.35262000       0.29772000
   122  C          0.78003000       0.85262000       0.20228000
   123  C          0.28003000       0.64738000       0.70228000
   124  C          0.21997000       0.14738000       0.79772000
   125  H          0.75370000       0.31620000       0.36040000
   126  H          0.74630000       0.81620000       0.13960000
   127  H          0.24630000       0.68380000       0.63960000
   128  H          0.25370000       0.18380000       0.86040000
   129  C          0.61448000       0.39865190       0.27662000
   130  C          0.88552000       0.89865190       0.22338000
   131  C          0.38552000       0.60134810       0.72338000
   132  C          0.11448000       0.10134810       0.77662000
   133  C          0.55378000       0.38752000       0.35202000
   134  C          0.94622000       0.88752000       0.14798000
   135  C          0.44622000       0.61248000       0.64798000
   136  C          0.05378000       0.11248000       0.85202000
   137  H          0.59070000       0.34890000       0.41240000
   138  H          0.90930000       0.84890000       0.08760000
   139  H          0.40930000       0.65110000       0.58760000
   140  H          0.09070000       0.15110000       0.91240000
   141  C          0.77567000       0.36042000       0.22643000
   142  C          0.72433000       0.86042000       0.27357000
   143  C          0.22433000       0.63958000       0.77357000
   144  C          0.27567000       0.13958000       0.72643000
   145  H          0.84690000       0.32860000       0.24240000
   146  H          0.65310000       0.82860000       0.25760000
   147  H          0.15310000       0.67140000       0.75760000
   148  H          0.34690000       0.17140000       0.74240000
   149  N          0.27328000       0.39359170       0.55764180
   150  N          0.22672000       0.89359170       0.94235820
   151  N          0.72672000       0.60640830       0.44235820
   152  N          0.77328000       0.10640830       0.05764180
   153  C          0.28658000       0.45812000       0.39802000
   154  C          0.21342000       0.95812000       0.10198000
   155  C          0.71342000       0.54188000       0.60198000
   156  C          0.78658000       0.04188000       0.89802000
   157  H          0.25300000       0.49590000       0.33630000
   158  H          0.24700000      -0.00410000       0.16370000
   159  H          0.74700000       0.50410000       0.66370000
   160  H          0.75300000       0.00410000       0.83630000
   161  C          0.37688000       0.35202000       0.57902000
   162  C          0.12312000       0.85202000       0.92098000
   163  C          0.62312000       0.64798000       0.42098000
   164  C          0.87688000       0.14798000       0.07902000
   165  H          0.40930000       0.31580000       0.64200000
   166  H          0.09070000       0.81580000       0.85800000
   167  H          0.59070000       0.68420000       0.35800000
   168  H          0.90930000       0.18420000       0.14200000
   169  C          0.22978000       0.44652000       0.46782000
   170  C          0.27022000       0.94652000       0.03218000
   171  C          0.77022000       0.55348000       0.53218000
   172  C          0.72978000       0.05348000       0.96782000
   173  H          0.15780000       0.47680000       0.45170000
   174  H          0.34220000       0.97680000       0.04830000
   175  H          0.84220000       0.52320000       0.54830000
   176  H          0.65780000       0.02320000       0.95170000
   177  C          0.57158000       0.45342000       0.18342000
   178  C          0.92842000       0.95342000       0.31658000
   179  C          0.42842000       0.54658000       0.81658000
   180  C          0.07158000       0.04658000       0.68342000
   181  H          0.50140000       0.48710000       0.16590000
   182  H         -0.00140000       0.98710000       0.33410000
   183  H          0.49860000       0.51290000       0.83410000
   184  H          0.00140000       0.01290000       0.66590000
   185  C          0.63287000       0.45813000       0.11642000
   186  C          0.86713000       0.95813000       0.38358000
   187  C          0.36713000       0.54187000       0.88358000
   188  C          0.13287000       0.04187000       0.61642000
   189  H          0.60310000       0.49600000       0.05430000
   190  H          0.89690000      -0.00400000       0.44570000
   191  H          0.39690000       0.50400000       0.94570000
   192  H          0.10310000       0.00400000       0.55430000
   193  O          0.48807000       0.27653000       0.86523000
   194  O          0.01193000       0.77653000       0.63477000
   195  O          0.51193000       0.72347000       0.13477000
   196  O         -0.01193000       0.22347000       0.36523000
   197  H          0.50160000       0.23940000       0.93140000
   198  H         -0.00160000       0.73940000       0.56860000
   199  H          0.49840000       0.76060000       0.06860000
   200  H          0.00160000       0.26060000       0.43140000
   201  H          0.55550000       0.31140000       0.88240000
   202  H          0.94450000       0.81140000       0.61760000
   203  H          0.44450000       0.68860000       0.11760000
   204  H          0.05550000       0.18860000       0.38240000
