data_OPUKUH
_symmetry_space_group_name_H-M    'P1'
_symmetry_Int_Tables_number       1
loop_
_symmetry_equiv_pos_site_id
_symmetry_equiv_pos_as_xyz
1 x,y,z
_cell_length_a                   4.75794
_cell_length_b                   12.562411
_cell_length_c                   13.409211
_cell_angle_alpha                76.4037
_cell_angle_beta                 80.8807
_cell_angle_gamma                82.8857
loop_
_atom_site_label
_atom_site_type_symbol
_atom_site_fract_x
_atom_site_fract_y
_atom_site_fract_z
     1  C          0.36125000       0.26897190       0.14236170
     2  C          0.63875000       0.73102810       0.85763830
     3  H          0.28050000       0.24480000       0.21060000
     4  H          0.71950000       0.75520000       0.78940000
     5  C          0.63744000       0.28096170       0.00047150
     6  C          0.36256000       0.71903830      -0.00047150
     7  C          0.86454000       0.33376190       0.82806160
     8  C          0.13546000       0.66623810       0.17193840
     9  C          0.41734000       0.44063180       0.88735160
    10  C          0.58266000       0.55936820       0.11264840
    11  C          0.42844000       0.36548170       0.98459150
    12  C          0.57156000       0.63451830       0.01540850
    13  C          0.05655000       0.16502000       0.93951190
    14  C          0.94345000       0.83498000       0.06048810
    15  H          0.11410000       0.15220000       0.00710000
    16  H          0.88590000       0.84780000      -0.00710000
    17  H          0.22120000       0.17600000       0.88790000
    18  H          0.77880000       0.82400000       0.11210000
    19  H          0.96790000       0.10250000       0.93370000
    20  H          0.03210000       0.89750000       0.06630000
    21  C          0.66316000       0.49372000       0.71083180
    22  C          0.33684000       0.50628000       0.28916820
    23  H          0.62120000       0.45530000       0.66170000
    24  H          0.37880000       0.54470000       0.33830000
    25  H          0.85200000       0.51740000       0.69070000
    26  H          0.14800000       0.48260000       0.30930000
    27  H          0.52690000       0.55660000       0.71260000
    28  H          0.47310000       0.44340000       0.28740000
    29  N          0.59914000       0.22045160       0.09888140
    30  N          0.40086000       0.77954840       0.90111860
    31  N          0.85243000       0.26307150       0.92393130
    32  N          0.14757000       0.73692850       0.07606870
    33  N          0.64633000       0.41996150       0.81416130
    34  N          0.35367000       0.58003850       0.18583870
    35  N          0.25124000       0.35618160       0.07714140
    36  N          0.74876000       0.64381840       0.92285860
    37  H          0.09160000       0.39920000       0.09320000
    38  H          0.90840000       0.60080000       0.90680000
    39  O          0.05363000       0.32290150       0.75818120
    40  O          0.94637000       0.67709850       0.24181880
    41  O          0.23363000       0.51721130       0.86616120
    42  O          0.76637000       0.48278870       0.13383880
    43  C          0.82825000       0.02201190       0.30466170
    44  C          0.17175000       0.97798810       0.69533830
    45  C         -0.00094000       0.92479180       0.36006160
    46  C          0.00094000       0.07520820       0.63993840
    47  C          0.24074000       0.87082000       0.31662160
    48  C          0.75926000       0.12918000       0.68337840
    49  C          0.38775000       0.77982000       0.37071180
    50  C          0.61225000       0.22018000       0.62928820
    51  H          0.54950000       0.74490000       0.33900000
    52  H          0.45050000       0.25510000       0.66100000
    53  C          0.28696000       0.74272000       0.47262000
    54  C          0.71304000       0.25728000       0.52738000
    55  C          0.90655000       0.88412000       0.46442180
    56  C          0.09345000       0.11588000       0.53557820
    57  H          0.74630000       0.91860000       0.49730000
    58  H          0.25370000       0.08140000       0.50270000
    59  C          0.05056000       0.79372000       0.51882180
    60  C          0.94944000       0.20628000       0.48117820
    61  F          0.34613000       0.90483140       0.21594100
    62  F          0.65387000       0.09516860       0.78405900
    63  F          0.42504000       0.65407170       0.52782150
    64  F          0.57496000       0.34592830       0.47217850
    65  F          0.96166000       0.75300170       0.61994120
    66  F          0.03834000       0.24699830       0.38005880
    67  O          0.91706000       0.05073170       0.20487130
    68  O          0.08294000       0.94926830       0.79512870
    69  H          0.78530000       0.10730000       0.17530000
    70  H          0.21470000       0.89270000       0.82470000
    71  O          0.62316000       0.06747170       0.34703150
    72  O          0.37684000       0.93252830       0.65296850
