data_OQEFEY
_symmetry_space_group_name_H-M    'P1'
_symmetry_Int_Tables_number       1
loop_
_symmetry_equiv_pos_site_id
_symmetry_equiv_pos_as_xyz
1 x,y,z
_cell_length_a                   11.0254
_cell_length_b                   7.0847
_cell_length_c                   13.0691
_cell_angle_alpha                90.0
_cell_angle_beta                 96.516
_cell_angle_gamma                90.0
loop_
_atom_site_label
_atom_site_type_symbol
_atom_site_fract_x
_atom_site_fract_y
_atom_site_fract_z
     1  S          0.62779900       0.11323130       0.92684400
     2  S          0.87220100       0.61323130       0.57315600
     3  S          0.37220100       0.88676870       0.07315600
     4  S          0.12779900       0.38676870       0.42684400
     5  N          0.66403000       0.43165000       0.01452000
     6  N          0.83597000       0.93165000       0.48548000
     7  N          0.33597000       0.56835000       0.98548000
     8  N          0.16403000       0.06835000       0.51452000
     9  N          0.84493000       0.26305000       0.00362000
    10  N          0.65507000       0.76305000       0.49638000
    11  N          0.15507000       0.73695000      -0.00362000
    12  N          0.34493000       0.23695000       0.50362000
    13  C          0.72483000       0.27945000       0.98748000
    14  C          0.77517000       0.77945000       0.51252000
    15  C          0.27517000       0.72055000       0.01252000
    16  C          0.22483000       0.22055000       0.48748000
    17  C          0.50394000       0.25925000       0.93907000
    18  C         -0.00394000       0.75925000       0.56093000
    19  C          0.49606000       0.74075000       0.06093000
    20  C          0.00394000       0.24075000       0.43907000
    21  H          0.42200000       0.22800000       0.91440000
    22  H          0.07800000       0.72800000       0.58560000
    23  H          0.57800000       0.77200000       0.08560000
    24  H          0.92200000       0.27200000       0.41440000
    25  C          0.53703000       0.42135000       0.98758000
    26  C          0.96297000       0.92135000       0.51242000
    27  C          0.46297000       0.57865000       0.01242000
    28  C          0.03703000       0.07865000       0.48758000
    29  H          0.89050000       0.13470000      -0.01030000
    30  H          0.60950000       0.63470000       0.51030000
    31  H          0.10950000       0.86530000       0.01030000
    32  H          0.39050000       0.36530000       0.48970000
    33  H          0.88840000       0.34470000       0.04230000
    34  H          0.61160000       0.84470000       0.45770000
    35  H          0.11160000       0.65530000       0.95770000
    36  H          0.38840000       0.15530000       0.54230000
    37  H          0.70350000       0.53370000       0.04830000
    38  H          0.79650000       0.03370000       0.45170000
    39  H          0.29650000       0.46630000       0.95170000
    40  H          0.20350000       0.96630000       0.54830000
    41  H          0.11050000       0.86670000       0.01030000
    42  H          0.38950000       0.36670000       0.48970000
    43  H          0.88950000       0.13330000      -0.01030000
    44  H          0.61050000       0.63330000       0.51030000
    45  H          0.29750000       0.46770000       0.95170000
    46  H          0.20250000       0.96770000       0.54830000
    47  H          0.70250000       0.53230000       0.04830000
    48  H          0.79750000       0.03230000       0.45170000
    49  P          0.13128900       0.22546140       0.14992600
    50  P          0.36871100       0.72546140       0.35007400
    51  P          0.86871100       0.77453860       0.85007400
    52  P          0.63128900       0.27453860       0.64992600
    53  O          0.11862000       0.12654000       0.04295170
    54  O          0.38138000       0.62654000       0.45704830
    55  O          0.88138000       0.87346000       0.95704830
    56  O          0.61862000       0.37346000       0.54295170
    57  H          0.15860000       0.18670000       0.00270000
    58  H          0.34140000       0.68670000       0.49730000
    59  H          0.84140000       0.81330000      -0.00270000
    60  H          0.65860000       0.31330000       0.50270000
    61  O          0.04462000       0.38494000       0.15354170
    62  O          0.45538000       0.88494000       0.34645830
    63  O          0.95538000       0.61506000       0.84645830
    64  O          0.54462000       0.11506000       0.65354170
    65  O          0.11442000       0.06294000       0.22672160
    66  O          0.38558000       0.56294000       0.27327840
    67  O          0.88558000       0.93706000       0.77327840
    68  O          0.61442000       0.43706000       0.72672160
    69  H          0.04130000       0.05960000       0.23910000
    70  H          0.45870000       0.55960000       0.26090000
    71  H          0.95870000       0.94040000       0.76090000
    72  H          0.54130000       0.44040000       0.73910000
    73  O          0.26882000       0.28264000       0.16997180
    74  O          0.23118000       0.78264000       0.33002820
    75  O          0.73118000       0.71736000       0.83002820
    76  O          0.76882000       0.21736000       0.66997180
    77  H          0.27720000       0.36900000       0.21420000
    78  H          0.22280000       0.86900000       0.28580000
    79  H          0.72280000       0.63100000       0.78580000
    80  H          0.77720000       0.13100000       0.71420000
    81  P          0.64700900       0.25449130       0.28294600
    82  P          0.85299100       0.75449130       0.21705400
    83  P          0.35299100       0.74550870       0.71705400
    84  P          0.14700900       0.24550870       0.78294600
    85  O          0.76062000       0.25223000       0.22229180
    86  O          0.73938000       0.75223000       0.27770820
    87  O          0.23938000       0.74777000       0.77770820
    88  O          0.26062000       0.24777000       0.72229180
    89  H          0.78760000       0.14160000       0.22030000
    90  H          0.71240000       0.64160000       0.27970000
    91  H          0.21240000       0.85840000       0.77970000
    92  H          0.28760000       0.35840000       0.72030000
    93  O          0.55163000       0.11624000       0.22746170
    94  O          0.94837000       0.61624000       0.27253830
    95  O          0.44837000       0.88376000       0.77253830
    96  O          0.05163000       0.38376000       0.72746170
    97  H          0.51000000       0.06810000       0.27080000
    98  H         -0.01000000       0.56810000       0.22920000
    99  H          0.49000000       0.93190000       0.72920000
   100  H          0.01000000       0.43190000       0.77080000
   101  O          0.60002000       0.45644000       0.27393160
   102  O          0.89998000       0.95644000       0.22606840
   103  O          0.39998000       0.54356000       0.72606840
   104  O          0.10002000       0.04356000       0.77393160
   105  O          0.68152000       0.19374000       0.39340160
   106  O          0.81848000       0.69374000       0.10659840
   107  O          0.31848000       0.80626000       0.60659840
   108  O          0.18152000       0.30626000       0.89340160
