data_OQITIT
_symmetry_space_group_name_H-M    'P1'
_symmetry_Int_Tables_number       1
loop_
_symmetry_equiv_pos_site_id
_symmetry_equiv_pos_as_xyz
1 x,y,z
_cell_length_a                   8.606801
_cell_length_b                   8.892801
_cell_length_c                   13.16362
_cell_angle_alpha                81.39616
_cell_angle_beta                 81.83636
_cell_angle_gamma                81.35337
loop_
_atom_site_label
_atom_site_type_symbol
_atom_site_fract_x
_atom_site_fract_y
_atom_site_fract_z
     1  C          0.54332000       0.54732000       0.20027160
     2  C          0.45668000       0.45268000       0.79972840
     3  N          0.41543000       0.51103000       0.26253180
     4  N          0.58457000       0.48897000       0.73746820
     5  H          0.35530000       0.45360000       0.24400000
     6  H          0.64470000       0.54640000       0.75600000
     7  H          0.39250000       0.54490000       0.32140000
     8  H          0.60750000       0.45510000       0.67860000
     9  N          0.57013000       0.49092000       0.11164160
    10  N          0.42987000       0.50908000       0.88835840
    11  H          0.50620000       0.43400000       0.09690000
    12  H          0.49380000       0.56600000       0.90310000
    13  H          0.65140000       0.51100000       0.06850000
    14  H          0.34860000       0.48900000       0.93150000
    15  S          0.66762700       0.65628700       0.23510500
    16  S          0.33237300       0.34371300       0.76489500
    17  C          0.54503000       0.10543000       0.11852000
    18  C          0.45497000       0.89457000       0.88148000
    19  H          0.56810000       0.14350000       0.17930000
    20  H          0.43190000       0.85650000       0.82070000
    21  H          0.58150000      -0.00380000       0.12400000
    22  H          0.41850000       0.00380000       0.87600000
    23  C          0.37213000       0.13363000       0.11222000
    24  C          0.62787000       0.86637000       0.88778000
    25  H          0.35140000       0.11260000       0.04550000
    26  H          0.64860000       0.88740000       0.95450000
    27  H          0.31860000       0.06530000       0.16570000
    28  H          0.68140000       0.93470000       0.83430000
    29  C          0.15053000       0.32543000       0.10892000
    30  C          0.84947000       0.67457000       0.89108000
    31  H          0.08820000       0.25550000       0.15550000
    32  H          0.91180000       0.74450000       0.84450000
    33  H          0.13890000       0.31370000       0.03840000
    34  H          0.86110000       0.68630000       0.96160000
    35  C          0.09223000       0.48623000       0.12822000
    36  C          0.90777000       0.51377000       0.87178000
    37  H          0.97860000       0.50700000       0.12650000
    38  H          0.02140000       0.49300000       0.87350000
    39  H          0.11440000       0.50140000       0.19590000
    40  H          0.88560000       0.49860000       0.80410000
    41  C          0.13973000       0.74263000       0.06772000
    42  C          0.86027000       0.25737000       0.93228000
    43  H          0.18580000       0.75530000       0.12850000
    44  H          0.81420000       0.24470000       0.87150000
    45  H          0.02640000       0.77400000       0.07970000
    46  H          0.97360000       0.22600000       0.92030000
    47  C          0.21043000       0.83943000       0.97508000
    48  C          0.78957000       0.16057000       0.02492000
    49  H          0.18140000       0.81100000       0.91260000
    50  H          0.81860000       0.18900000       0.08740000
    51  H          0.17000000       0.94660000       0.97860000
    52  H          0.83000000       0.05340000       0.02140000
    53  O          0.62293190       0.18240180       0.02781130
    54  O          0.37706810       0.81759820       0.97218870
    55  O          0.31258180       0.28934180       0.12508120
    56  O          0.68741820       0.71065820       0.87491880
    57  O          0.17014190       0.58698190       0.05021130
    58  O          0.82985810       0.41301810       0.94978870
    59  C          0.81663000       0.06162000       0.41997170
    60  C          0.18337000       0.93838000       0.58002830
    61  C          0.73703000       0.00902000       0.51574170
    62  C          0.26297000      -0.00902000       0.48425830
    63  C          0.75593000       0.85397000       0.54868180
    64  C          0.24407000       0.14603000       0.45131820
    65  C          0.84763000       0.74967000       0.49052000
    66  C          0.15237000       0.25033000       0.50948000
    67  C          0.92673000       0.80087000       0.39712000
    68  C          0.07327000       0.19913000       0.60288000
    69  C          0.91053000       0.95647000       0.36304180
    70  C          0.08947000       0.04353000       0.63695820
    71  F          0.68112000       0.79730820       0.64020130
    72  F          0.31888000       0.20269180       0.35979870
    73  F          0.85812000       0.59981840       0.52509140
    74  F          0.14188000       0.40018160       0.47490860
    75  F          0.01792000       0.70235810       0.33970140
    76  F          0.98208000       0.29764190       0.66029860
    77  F         -0.01018000       0.00172000       0.27018130
    78  F          0.01018000      -0.00172000       0.72981870
    79  I          0.79195200       0.29380200       0.35740200
    80  I          0.20804800       0.70619800       0.64259800
    81  I          0.57903200       0.14958200       0.61095200
    82  I          0.42096800       0.85041800       0.38904800
