data_OQIVUH01
_symmetry_space_group_name_H-M    'P1'
_symmetry_Int_Tables_number       1
loop_
_symmetry_equiv_pos_site_id
_symmetry_equiv_pos_as_xyz
1 x,y,z
_cell_length_a                   9.84602
_cell_length_b                   10.47923
_cell_length_c                   11.34133
_cell_angle_alpha                85.3132
_cell_angle_beta                 64.8712
_cell_angle_gamma                71.8832
loop_
_atom_site_label
_atom_site_type_symbol
_atom_site_fract_x
_atom_site_fract_y
_atom_site_fract_z
     1  C          0.72613000       0.90763000       0.38623000
     2  C          0.27387000       0.09237000       0.61377000
     3  C          0.73293000       0.94633000       0.49893000
     4  C          0.26707000       0.05367000       0.50107000
     5  C          0.79764000       0.04863000       0.49333000
     6  C          0.20236000       0.95137000       0.50667000
     7  C          0.85984000       0.11033000       0.37843000
     8  C          0.14016000       0.88967000       0.62157000
     9  C          0.85234000       0.07333000       0.26793000
    10  C          0.14766000       0.92667000       0.73207000
    11  C          0.78464000       0.97423000       0.27293000
    12  C          0.21536000       0.02577000       0.72707000
    13  F          0.78302000       0.93978190       0.16107180
    14  F          0.21698000       0.06021810       0.83892820
    15  F          0.91772000       0.12905190       0.15474190
    16  F          0.08228000       0.87094810       0.84525810
    17  F          0.92952000       0.20317190       0.37382000
    18  F          0.07048000       0.79682810       0.62618000
    19  F          0.80772000       0.08832000       0.59895190
    20  F          0.19228000       0.91168000       0.40104810
    21  I          0.66092200       0.73766200       0.36981200
    22  I          0.33907800       0.26233800       0.63018800
    23  I          0.65430200       0.85479200       0.67661200
    24  I          0.34569800       0.14520800       0.32338800
    25  C          0.46833000       0.48403000       0.29923000
    26  C          0.53167000       0.51597000       0.70077000
    27  C          0.17934000       0.56103000       0.42843000
    28  C          0.82066000       0.43897000       0.57157000
    29  H          0.14480000       0.63840000       0.38210000
    30  H          0.85520000       0.36160000       0.61790000
    31  H          0.11070000       0.57680000       0.52200000
    32  H          0.88930000       0.42320000       0.47800000
    33  H          0.17370000       0.48000000       0.39560000
    34  H          0.82630000       0.52000000       0.60440000
    35  N          0.34173000       0.54263000       0.40692000
    36  N          0.65827000       0.45737000       0.59308000
    37  H          0.35690000       0.57220000       0.46930000
    38  H          0.64310000       0.42780000       0.53070000
    39  N          0.44933000       0.45562000       0.19552000
    40  N          0.55067000       0.54438000       0.80448000
    41  H          0.35400000       0.47560000       0.19880000
    42  H          0.64600000       0.52440000       0.80120000
    43  H          0.53200000       0.41690000       0.12380000
    44  H          0.46800000       0.58310000       0.87620000
    45  S          0.65416800       0.44500800       0.29471700
    46  S          0.34583200       0.55499200       0.70528300
    47  C          0.21964000       0.31994000       0.03903000
    48  C          0.78036000       0.68006000       0.96097000
    49  H          0.18440000       0.24170000       0.03660000
    50  H          0.81560000       0.75830000       0.96340000
    51  H          0.22940000       0.36810000       0.95840000
    52  H          0.77060000       0.63190000       0.04160000
    53  C          0.10064000       0.41284000       0.15763000
    54  C          0.89936000       0.58716000       0.84237000
    55  H          0.99610000       0.44000000       0.15520000
    56  H          0.00390000       0.56000000       0.84480000
    57  H          0.09210000       0.36310000       0.23720000
    58  H          0.90790000       0.63690000       0.76280000
    59  C          0.10684000       0.63093000       0.07983000
    60  C          0.89316000       0.36907000       0.92017000
    61  H          0.99420000       0.65520000       0.09740000
    62  H          0.00580000       0.34480000       0.90260000
    63  H          0.17090000       0.59530000      -0.01200000
    64  H          0.82910000       0.40470000       0.01200000
    65  C          0.14424000       0.75313000       0.10133000
    66  C          0.85576000       0.24687000       0.89867000
    67  H          0.10680000       0.82760000       0.05220000
    68  H          0.89320000       0.17240000       0.94780000
    69  H          0.08950000       0.78230000       0.19510000
    70  H          0.91050000       0.21770000       0.80490000
    71  C          0.35414000       0.83903000       0.06323000
    72  C          0.64586000       0.16097000       0.93677000
    73  H          0.27250000       0.89870000       0.14020000
    74  H          0.72750000       0.10130000       0.85980000
    75  H          0.36160000       0.88930000       0.98400000
    76  H          0.63840000       0.11070000       0.01600000
    77  C          0.51044000       0.79793000       0.07153000
    78  C          0.48956000       0.20207000       0.92847000
    79  H          0.53460000       0.87890000       0.08530000
    80  H          0.46540000       0.12110000       0.91470000
    81  H          0.50560000       0.74110000       0.14640000
    82  H          0.49440000       0.25890000       0.85360000
    83  O          0.36883000       0.27502000       0.04632000
    84  O          0.63117000       0.72498000       0.95368000
    85  O          0.14062000       0.53102000       0.16532000
    86  O          0.85938000       0.46898000       0.83468000
    87  O          0.31052000       0.72222000       0.05842000
    88  O          0.68948000       0.27778000       0.94158000
