data_OQOMOX
_symmetry_space_group_name_H-M    'P1'
_symmetry_Int_Tables_number       1
loop_
_symmetry_equiv_pos_site_id
_symmetry_equiv_pos_as_xyz
1 x,y,z
_cell_length_a                   11.97789
_cell_length_b                   13.75208
_cell_length_c                   7.06306
_cell_angle_alpha                90.0
_cell_angle_beta                 103.9588
_cell_angle_gamma                90.0
loop_
_atom_site_label
_atom_site_type_symbol
_atom_site_fract_x
_atom_site_fract_y
_atom_site_fract_z
     1  N          0.50929140       0.93999880       0.77113000
     2  N          0.49070860       0.43999880       0.72887000
     3  N          0.49070860       0.06000120       0.22887000
     4  N          0.50929140       0.56000120       0.27113000
     5  N          0.57046150       0.85646890       0.75403000
     6  N          0.42953850       0.35646890       0.74597000
     7  N          0.42953850       0.14353110       0.24597000
     8  N          0.57046150       0.64353110       0.25403000
     9  C          0.66998170       0.88209870       0.72153000
    10  C          0.33001830       0.38209870       0.77847000
    11  C          0.33001830       0.11790130       0.27847000
    12  C          0.66998170       0.61790130       0.22153000
    13  N          0.67648130       0.98163900       0.71892000
    14  N          0.32351870       0.48163900       0.78108000
    15  N          0.32351870       0.01836100       0.28108000
    16  N          0.67648130       0.51836100       0.21892000
    17  N          0.76633140       0.03577110       0.69202000
    18  N          0.23366860       0.53577110       0.80798000
    19  N          0.23366860       0.96422890       0.30798000
    20  N          0.76633140       0.46422890       0.19202000
    21  C          0.74687170       0.12847130       0.69653000
    22  C          0.25312830       0.62847130       0.80347000
    23  C          0.25312830       0.87152870       0.30347000
    24  C          0.74687170       0.37152870       0.19653000
    25  Cl         0.85884500       0.20080400       0.66617100
    26  Cl         0.14115500       0.70080400       0.83382900
    27  Cl         0.14115500       0.79919600       0.33382900
    28  Cl         0.85884500       0.29919600       0.16617100
    29  C          0.64463190       0.17342150       0.72363000
    30  C          0.35536810       0.67342150       0.77637000
    31  C          0.35536810       0.82657850       0.27637000
    32  C          0.64463190       0.32657850       0.22363000
    33  C          0.55780190       0.11781140       0.75103000
    34  C          0.44219810       0.61781140       0.74897000
    35  C          0.44219810       0.88218860       0.24897000
    36  C          0.55780190       0.38218860       0.25103000
    37  C          0.57408170       0.01534130       0.75023000
    38  C          0.42591830       0.51534130       0.74977000
    39  C          0.42591830       0.98465870       0.24977000
    40  C          0.57408170       0.48465870       0.25023000
    41  C          0.75972000       0.81659850       0.68554000
    42  C          0.24028000       0.31659850       0.81446000
    43  C          0.24028000       0.18340150       0.31446000
    44  C          0.75972000       0.68340150       0.18554000
    45  Cl         0.88626600       0.81731600       0.87743110
    46  Cl         0.11373400       0.31731600       0.62256890
    47  Cl         0.11373400       0.18268400       0.12256890
    48  Cl         0.88626600       0.68268400       0.37743110
    49  H          0.64151800       0.23631900       0.72630000
    50  H          0.35848200       0.73631900       0.77370000
    51  H          0.35848200       0.76368100       0.27370000
    52  H          0.64151800       0.26368100       0.22630000
    53  H          0.48420000       0.14411600       0.77830000
    54  H          0.51580000       0.64411600       0.72170000
    55  H          0.51580000       0.85588400       0.22170000
    56  H          0.48420000       0.35588400       0.27830000
    57  H          0.73521900       0.75680000       0.67930000
    58  H          0.26478100       0.25680000       0.82070000
    59  H          0.26478100       0.24320000       0.32070000
    60  H          0.73521900       0.74320000       0.17930000
    61  H          0.78101900       0.82798400       0.57440000
    62  H          0.21898100       0.32798400       0.92560000
    63  H          0.21898100       0.17201600       0.42560000
    64  H          0.78101900       0.67201600       0.07440000
    65  O          0.29037150       0.92285900       0.79953000
    66  O          0.70962850       0.42285900       0.70047000
    67  O          0.70962850       0.07714100       0.20047000
    68  O          0.29037150       0.57714100       0.29953000
    69  H          0.36530000       0.93380000       0.81140000
    70  H          0.63470000       0.43380000       0.68860000
    71  H          0.63470000       0.06620000       0.18860000
    72  H          0.36530000       0.56620000       0.31140000
    73  O          0.27798160       0.08120110       0.74773000
    74  O          0.72201840       0.58120110       0.75227000
    75  O          0.72201840       0.91879890       0.25227000
    76  O          0.27798160       0.41879890       0.24773000
    77  C          0.23232190       0.00500150       0.76633000
    78  C          0.76767810       0.50500150       0.73367000
    79  C          0.76767810      -0.00500150       0.23367000
    80  C          0.23232190       0.49499850       0.26633000
    81  C          0.10782000      -0.00868190       0.75514000
    82  C          0.89218000       0.49131810       0.74486000
    83  C          0.89218000       0.00868190       0.24486000
    84  C          0.10782000       0.50868190       0.25514000
    85  H          0.09290000       0.92390000       0.77440000
    86  H          0.90710000       0.42390000       0.72560000
    87  H          0.90710000       0.07610000       0.22560000
    88  H          0.09290000       0.57610000       0.27440000
    89  H          0.06370000       0.01170000       0.62920000
    90  H          0.93630000       0.51170000       0.87080000
    91  H          0.93630000       0.98830000       0.37080000
    92  H          0.06370000       0.48830000       0.12920000
    93  H          0.08640000       0.02950000       0.85450000
    94  H          0.91360000       0.52950000       0.64550000
    95  H          0.91360000       0.97050000       0.14550000
    96  H          0.08640000       0.47050000       0.35450000
