data_OQULAQ
_symmetry_space_group_name_H-M    'P1'
_symmetry_Int_Tables_number       1
loop_
_symmetry_equiv_pos_site_id
_symmetry_equiv_pos_as_xyz
1 x,y,z
_cell_length_a                   12.991113
_cell_length_b                   15.721515
_cell_length_c                   16.410916
_cell_angle_alpha                111.07501
_cell_angle_beta                 97.83901
_cell_angle_gamma                106.32501
loop_
_atom_site_label
_atom_site_type_symbol
_atom_site_fract_x
_atom_site_fract_y
_atom_site_fract_z
     1  Br         0.23782400       0.08846300       0.62679300
     2  Br         0.76217600       0.91153700       0.37320700
     3  Br         0.62192400       0.88827300       0.13771300
     4  Br         0.37807600       0.11172700       0.86228700
     5  Br         0.43290400       0.71841300       0.95988300
     6  Br         0.56709600       0.28158700       0.04011700
     7  Br         0.17087400       0.61861400       0.87391300
     8  Br         0.82912600       0.38138600       0.12608700
     9  Br         0.33491400       0.62554400       0.74618300
    10  Br         0.66508600       0.37445600       0.25381700
    11  C          0.31424000       0.61603000       0.85703000
    12  C          0.68576000       0.38397000       0.14297000
    13  H          0.31771600       0.55200600       0.85305200
    14  H          0.68228400       0.44799400       0.14694800
    15  C          0.74704000       0.52403000       0.87943000
    16  C          0.25296000       0.47597000       0.12057000
    17  C          0.72644000       0.42523000       0.85323000
    18  C          0.27356000       0.57477000       0.14677000
    19  H          0.78217500       0.39897700       0.83773600
    20  H          0.21782500       0.60102300       0.16226400
    21  C          0.62474000       0.36603000       0.85003000
    22  C          0.37526000       0.63397000       0.14997000
    23  H          0.61044700       0.29837800       0.83260300
    24  H          0.38955300       0.70162200       0.16739700
    25  C          0.54134000       0.40313000       0.87183000
    26  C          0.45866000       0.59687000       0.12817000
    27  C          0.56444000       0.50363000       0.90043000
    28  C          0.43556000       0.49637000       0.09957000
    29  H          0.50931800       0.53009700       0.91752000
    30  H          0.49068200       0.46990300       0.08248000
    31  C          0.66684000       0.56423000       0.90373000
    32  C          0.33316000       0.43577000       0.09627000
    33  H          0.68233300       0.63217300       0.92217500
    34  H          0.31766700       0.36782700       0.07782500
    35  C          0.34004000       0.35433000       0.85563000
    36  C          0.65996000       0.64567000       0.14437000
    37  C          0.14564000       0.28823000       0.85873000
    38  C          0.85436000       0.71177000       0.14127000
    39  C          0.12674000       0.37523000       0.89863000
    40  C          0.87326000       0.62477000       0.10137000
    41  H          0.18754900       0.43554300       0.92784100
    42  H          0.81245100       0.56445700       0.07215900
    43  C          0.01984000       0.37333000       0.89563000
    44  C          0.98016000       0.62667000       0.10437000
    45  H          0.00695500       0.43254900       0.92263200
    46  H         -0.00695500       0.56745100       0.07736800
    47  C          0.93096000       0.28594000       0.85333000
    48  C          0.06904000       0.71406000       0.14667000
    49  H          0.85757900       0.28524300       0.85268500
    50  H          0.14242100       0.71475700       0.14731500
    51  C          0.94806000       0.19983000       0.81233000
    52  C          0.05194000       0.80017000       0.18767000
    53  H          0.88646100       0.14004200       0.78244000
    54  H          0.11353900       0.85995800       0.21756000
    55  C          0.05604000       0.20033000       0.81453000
    56  C          0.94396000       0.79967000       0.18547000
    57  C          0.02813000       0.02713000       0.77293000
    58  C          0.97187000       0.97287000       0.22707000
    59  C          0.03814000       0.86257000       0.72043000
    60  C          0.96186000       0.13743000       0.27957000
    61  C          0.93466000       0.80747000       0.72293000
    62  C          0.06534000       0.19253000       0.27707000
    63  H          0.87651300       0.83307400       0.72574600
    64  H          0.12348700       0.16692600       0.27425400
    65  C          0.91636000       0.71617000       0.72133000
    66  C          0.08364000       0.28383000       0.27867000
    67  H          0.84547000       0.67937500       0.72292200
    68  H          0.15453000       0.32062500       0.27707800
    69  C         -0.00034000       0.67767000       0.71743000
    70  C          0.00034000       0.32233000       0.28257000
    71  H         -0.01390500       0.61479900       0.71674500
    72  H          0.01390500       0.38520100       0.28325500
    73  C          0.10294000       0.73027000       0.71443000
    74  C          0.89706000       0.26973000       0.28557000
    75  H          0.16027100       0.70379100       0.71193400
    76  H          0.83972900       0.29620900       0.28806600
    77  C          0.12284000       0.82277000       0.71493000
    78  C          0.87716000       0.17723000       0.28507000
    79  C          0.29144000       0.84757000       0.65663000
    80  C          0.70856000       0.15243000       0.34337000
    81  C          0.48043000       0.91727000       0.63843000
    82  C          0.51957000       0.08273000       0.36157000
    83  C          0.51524000       0.83867000       0.63033000
    84  C          0.48476000       0.16133000       0.36967000
    85  H          0.47030000       0.78503900       0.63874600
    86  H          0.52970000       0.21496100       0.36125400
    87  C          0.61564000       0.83937000       0.60973000
    88  C          0.38436000       0.16063000       0.39027000
    89  H          0.63978100       0.78651700       0.60486800
    90  H          0.36021900       0.21348300       0.39513200
    91  C          0.68044000       0.91687000       0.59633000
    92  C          0.31956000       0.08313000       0.40367000
    93  H          0.74933200       0.91723100       0.58284200
    94  H          0.25066800       0.08276900       0.41715800
    95  C          0.64594000      -0.00593000       0.60233000
    96  C          0.35406000       0.00593000       0.39767000
    97  H          0.69113200       0.04725400       0.59319700
    98  H          0.30886800       0.95274600       0.40680300
    99  C          0.54414000      -0.00653000       0.62183000
   100  C          0.45586000       0.00653000       0.37817000
   101  C          0.56294000       0.16043000       0.63263000
   102  C          0.43706000       0.83957000       0.36737000
   103  C          0.53014000       0.30453000       0.62383000
   104  C          0.46986000       0.69547000       0.37617000
   105  C          0.61284000       0.32983000       0.58203000
   106  C          0.38716000       0.67017000       0.41797000
   107  H          0.65171700       0.28734000       0.55921300
   108  H          0.34828300       0.71266000       0.44078700
   109  C          0.63774000       0.41824000       0.57424000
   110  C          0.36226000       0.58176000       0.42576000
   111  H          0.69330200       0.43659600       0.54539700
   112  H          0.30669800       0.56340400       0.45460300
   113  C          0.58004000       0.47914000       0.60924000
   114  C          0.41996000       0.52086000       0.39076000
   115  C          0.49784000       0.45374000       0.64983000
   116  C          0.50216000       0.54626000       0.35017000
   117  H          0.45936600       0.49651600       0.67286900
   118  H          0.54063400       0.50348400       0.32713100
   119  C          0.47154000       0.36613000       0.65693000
   120  C          0.52846000       0.63387000       0.34307000
   121  H          0.41405600       0.34749100       0.68400700
   122  H          0.58594400       0.65250900       0.31599300
   123  N          0.85443000       0.58893000       0.88443000
   124  N          0.14557000       0.41107000       0.11557000
   125  N          0.43883000       0.33893000       0.86552000
   126  N          0.56117000       0.66107000       0.13448000
   127  H          0.43728600       0.28364400       0.86804300
   128  H          0.56271400       0.71635600       0.13195700
   129  N          0.25533000       0.28623000       0.86352000
   130  N          0.74467000       0.71377000       0.13648000
   131  H          0.26901200       0.23789400       0.87199200
   132  H          0.73098800       0.76210600       0.12800800
   133  N          0.07683000       0.11372000       0.76942000
   134  N          0.92317000       0.88628000       0.23058000
   135  H          0.12488400       0.11638400       0.73659000
   136  H          0.87511600       0.88361600       0.26341000
   137  N          0.06043000       0.95418000       0.71872000
   138  N          0.93957000       0.04582000       0.28128000
   139  H          0.09744900       0.96637700       0.68063100
   140  H          0.90255100       0.03362300       0.31936900
   141  N          0.22803000       0.88027000       0.71322000
   142  N          0.77197000       0.11973000       0.28678000
   143  H          0.25517900       0.94224900       0.75157500
   144  H          0.74482100       0.05775100       0.24842500
   145  N          0.38383000       0.92437000       0.66742000
   146  N          0.61617000       0.07563000       0.33258000
   147  H          0.38286200       0.98355800       0.69492100
   148  H          0.61713800       0.01644200       0.30507900
   149  N          0.50293000       0.07003000       0.62612000
   150  N          0.49707000       0.92997000       0.37388000
   151  H          0.43209500       0.05789400       0.62440700
   152  H          0.56790500       0.94210600       0.37559300
   153  N          0.49663000       0.21483000       0.63023000
   154  N          0.50337000       0.78517000       0.36977000
   155  H          0.42781700       0.19125200       0.63296000
   156  H          0.57218300       0.80874800       0.36704000
   157  N          0.60634000       0.57284000       0.60134000
   158  N          0.39366000       0.42716000       0.39866000
   159  O          0.92713000       0.55312000       0.86662000
   160  O          0.07287000       0.44688000       0.13338000
   161  O          0.87043000       0.67552000       0.90513000
   162  O          0.12957000       0.32448000       0.09487000
   163  O          0.32843000       0.42212000       0.83992000
   164  O          0.67157000       0.57788000       0.16008000
   165  O          0.96397000       0.01412000       0.81882000
   166  O          0.03603000       0.98588000       0.18118000
   167  O          0.26662000       0.76368000       0.60292000
   168  O          0.73338000       0.23632000       0.39708000
   169  O          0.66393000       0.19172000       0.64342000
   170  O          0.33607000       0.80828000       0.35658000
   171  O          0.56035000       0.62844000       0.63814000
   172  O          0.43965000       0.37156000       0.36186000
   173  O          0.67134000       0.58863000       0.55543000
   174  O          0.32866000       0.41137000       0.44457000
   175  C          0.05694000       0.79973000       0.47253000
   176  C          0.94306000       0.20027000       0.52747000
   177  H          0.04495800       0.83516600       0.53168100
   178  H          0.95504200       0.16483400       0.46831900
   179  H          0.12987900       0.79213900       0.48439300
   180  H          0.87012100       0.20786100       0.51560700
   181  C          0.06154000       0.86124000       0.41893000
   182  C          0.93846000       0.13876000       0.58107000
   183  H          0.07987400       0.82960200       0.36232300
   184  H          0.92012600       0.17039800       0.63767700
   185  H          0.11854800       0.92603500       0.45472900
   186  H          0.88145200       0.07396500       0.54527100
   187  H         -0.01103100       0.86753100       0.40496100
   188  H          0.01103100       0.13246900       0.59503900
   189  C          0.98154000       0.63963000       0.33553000
   190  C          0.01846000       0.36037000       0.66447000
   191  H          0.97120100       0.67170200       0.29459200
   192  H          0.02879900       0.32829800       0.70540800
   193  H          0.92254200       0.57403000       0.30833400
   194  H          0.07745800       0.42597000       0.69166600
   195  C          0.09404000       0.62734000       0.33983000
   196  C          0.90596000       0.37266000       0.66017000
   197  H          0.15250600       0.69095100       0.35841200
   198  H          0.84749400       0.30904900       0.64158800
   199  H          0.09393500       0.58273800       0.27993900
   200  H          0.90606500       0.41726200       0.72006100
   201  H          0.10805500       0.60046400       0.38380500
   202  H          0.89194500       0.39953600       0.61619500
   203  C          0.97604000       0.65133000       0.49153000
   204  C          0.02396000       0.34867000       0.50847000
   205  H          0.96443500       0.69202500       0.54894700
   206  H          0.03556500       0.30797500       0.45105300
   207  H          0.05278000       0.65154900       0.50495200
   208  H          0.94722000       0.34845100       0.49504800
   209  C          0.89504000       0.54693000       0.45853000
   210  C          0.10496000       0.45307000       0.54147000
   211  H          0.81899800       0.54423100       0.43900100
   212  H          0.18100200       0.45576900       0.56099900
   213  H          0.90053800       0.52590800       0.50785600
   214  H          0.09946200       0.47409200       0.49214400
   215  H          0.91353800       0.50361400       0.40743500
   216  H          0.08646200       0.49638600       0.59256500
   217  C          0.85103000       0.70443000       0.40553000
   218  C          0.14897000       0.29557000       0.59447000
   219  H          0.84927800       0.73833500       0.36513200
   220  H          0.15072200       0.26166500       0.63486800
   221  H          0.79553800       0.63741500       0.37227500
   222  H          0.20446200       0.36258500       0.62772500
   223  C          0.81694000       0.75684000       0.48813000
   224  C          0.18306000       0.24316000       0.51187000
   225  H          0.81432700       0.72194300       0.52711500
   226  H          0.18567300       0.27805700       0.47288500
   227  H          0.74321600       0.75912300       0.46922800
   228  H          0.25678400       0.24087700       0.53077200
   229  H          0.87106600       0.82347100       0.52155500
   230  H          0.12893400       0.17652900       0.47844500
   231  N          0.96603000       0.69823000       0.42572000
   232  N          0.03397000       0.30177000       0.57428000
   233  C          0.27554000       0.96147000       0.14363000
   234  C          0.72446000       0.03853000       0.85637000
   235  H          0.32181900       0.01525300       0.20258500
   236  H          0.67818100       0.98474700       0.79741500
   237  H          0.19804900       0.94096800       0.14828600
   238  H          0.80195100       0.05903200       0.85171400
   239  C          0.31514000       0.87657000       0.12753000
   240  C          0.68486000       0.12343000       0.87247000
   241  H          0.26498800       0.82027200       0.07263400
   242  H          0.73501200       0.17972800       0.92736600
   243  H          0.31527600       0.85974100       0.17942800
   244  H          0.68472400       0.14025900       0.82057200
   245  H          0.39054200       0.89476400       0.11983700
   246  H          0.60945800       0.10523600       0.88016300
   247  C          0.20434000       0.92377000       0.97977000
   248  C          0.79566000       0.07623000       0.02023000
   249  H          0.21136200       0.95197300       0.93481300
   250  H          0.78863800       0.04802700       0.06518700
   251  H          0.23199700       0.86895500       0.96163300
   252  H          0.76800300       0.13104500       0.03836700
   253  C          0.08264000       0.88336000       0.97497000
   254  C          0.91736000       0.11664000       0.02503000
   255  H          0.07423000       0.85718200       0.02059600
   256  H          0.92577000       0.14281800       0.97940400
   257  H          0.04273000       0.83121600       0.91460200
   258  H          0.95727000       0.16878400       0.08539800
   259  H          0.05190900       0.93555700       0.98671600
   260  H          0.94809100       0.06444300       0.01328400
   261  C          0.23914000       0.08743000       0.10483000
   262  C          0.76086000       0.91257000       0.89517000
   263  H          0.16584600       0.06416000       0.11648500
   264  H          0.83415400       0.93584000       0.88351500
   265  H          0.29174300       0.13692600       0.16336200
   266  H          0.70825700       0.86307400       0.83663800
   267  C          0.22825000       0.13594000       0.04204000
   268  C          0.77175000       0.86406000       0.95796000
   269  H          0.30138400       0.16433500       0.03389500
   270  H          0.69861600       0.83566500       0.96610500
   271  H          0.19849800       0.18752900       0.06785200
   272  H          0.80150200       0.81247100       0.93214800
   273  H          0.17747800       0.08751000       0.98320400
   274  H          0.82252200       0.91249000       0.01679600
   275  C          0.39634000       0.03193000       0.05853000
   276  C          0.60366000       0.96807000       0.94147000
   277  H          0.41564900       0.97281300       0.03309600
   278  H          0.58435100       0.02718700       0.96690400
   279  H          0.39533300       0.05987100       0.01324700
   280  H          0.60466700       0.94012900       0.98675300
   281  C          0.48574000       0.10444000       0.14253000
   282  C          0.51426000       0.89556000       0.85747000
   283  H          0.46688100       0.16281600       0.16917100
   284  H          0.53311900       0.83718400       0.83082900
   285  H          0.55665800       0.12232000       0.12720600
   286  H          0.44334200       0.87768000       0.87279400
   287  H          0.49197100       0.07562500       0.18602800
   288  H          0.50802900       0.92437500       0.81397200
   289  N          0.27903000       0.00113000       0.07132000
   290  N          0.72097000      -0.00113000       0.92868000
