data_ORAWIO
_symmetry_space_group_name_H-M    'P1'
_symmetry_Int_Tables_number       1
loop_
_symmetry_equiv_pos_site_id
_symmetry_equiv_pos_as_xyz
1 x,y,z
_cell_length_a                   6.23954
_cell_length_b                   3.77053
_cell_length_c                   41.2203
_cell_angle_alpha                90.0
_cell_angle_beta                 94.4946
_cell_angle_gamma                90.0
loop_
_atom_site_label
_atom_site_type_symbol
_atom_site_fract_x
_atom_site_fract_y
_atom_site_fract_z
     1  C          0.71272000      -0.00077000       0.17110300
     2  C          0.28728000       0.49923000       0.32889700
     3  C          0.28728000       0.00077000       0.82889700
     4  C          0.71272000       0.50077000       0.67110300
     5  C          0.50142000       0.88854000       0.16475300
     6  C          0.49858000       0.38854000       0.33524700
     7  C          0.49858000       0.11146000       0.83524700
     8  C          0.50142000       0.61146000       0.66475300
     9  H          0.40050000       0.91550000       0.18070000
    10  H          0.59950000       0.41550000       0.31930000
    11  H          0.59950000       0.08450000       0.81930000
    12  H          0.40050000       0.58450000       0.68070000
    13  C          0.44092000       0.73884000       0.13495300
    14  C          0.55908000       0.23884000       0.36504700
    15  C          0.55908000       0.26116000       0.86504700
    16  C          0.44092000       0.76116000       0.63495300
    17  H          0.29590000       0.66420000       0.13070000
    18  H          0.70410000       0.16420000       0.36930000
    19  H          0.70410000       0.33580000       0.86930000
    20  H          0.29590000       0.83580000       0.63070000
    21  C          0.77902000       0.80264000       0.11779300
    22  C          0.22098000       0.30264000       0.38220700
    23  C          0.22098000       0.19736000       0.88220700
    24  C          0.77902000       0.69736000       0.61779300
    25  H          0.87680000       0.77190000       0.10150000
    26  H          0.12320000       0.27190000       0.39850000
    27  H          0.12320000       0.22810000       0.89850000
    28  H          0.87680000       0.72810000       0.60150000
    29  C          0.85252000       0.95874000       0.14693300
    30  C          0.14748000       0.45874000       0.35306700
    31  C          0.14748000       0.04126000       0.85306700
    32  C          0.85252000       0.54126000       0.64693300
    33  H         -0.00270000       0.03710000       0.15030000
    34  H          0.00270000       0.53710000       0.34970000
    35  H          0.00270000       0.96290000       0.84970000
    36  H         -0.00270000       0.46290000       0.65030000
    37  C          0.79892000       0.16113000       0.20265300
    38  C          0.20108000       0.66113000       0.29734700
    39  C          0.20108000       0.83887000       0.79734700
    40  C          0.79892000       0.33887000       0.70265300
    41  N          0.67363180       0.13863000       0.22749300
    42  N          0.32636820       0.63863000       0.27250700
    43  N          0.32636820       0.86137000       0.77250700
    44  N          0.67363180       0.36137000       0.72749300
    45  H          0.54430000       0.03440000       0.22674000
    46  H          0.45570000       0.53440000       0.27326000
    47  H          0.45570000      -0.03440000       0.77326000
    48  H          0.54430000       0.46560000       0.72674000
    49  N          0.57640180       0.69313000       0.11163300
    50  N          0.42359820       0.19313000       0.38836700
    51  N          0.42359820       0.30687000       0.88836700
    52  N          0.57640180       0.80687000       0.61163300
    53  N          0.73014180       0.30623000       0.25779300
    54  N          0.26985820       0.80623000       0.24220700
    55  N          0.26985820       0.69377000       0.74220700
    56  N          0.73014180       0.19377000       0.75779300
    57  H          0.81030000       0.50040000       0.25304000
    58  H          0.18970000       0.00040000       0.24696000
    59  H          0.18970000       0.49960000       0.74696000
    60  H          0.81030000      -0.00040000       0.75304000
    61  H          0.82420000       0.15140000       0.27074000
    62  H          0.17580000       0.65140000       0.22926000
    63  H          0.17580000       0.84860000       0.72926000
    64  H          0.82420000       0.34860000       0.77074000
    65  O         -0.02358860       0.30703000       0.20537200
    66  O          0.02358860       0.80703000       0.29462800
    67  O          0.02358860       0.69297000       0.79462800
    68  O         -0.02358860       0.19297000       0.70537200
    69  C          0.10572000       0.14003000       0.02795300
    70  C          0.89428000       0.64003000       0.47204700
    71  C          0.89428000       0.85997000       0.97204700
    72  C          0.10572000       0.35997000       0.52795300
    73  C          0.20932000       0.12544000      -0.00073300
    74  C          0.79068000       0.62544000       0.50073300
    75  C          0.79068000       0.87456000       0.00073300
    76  C          0.20932000       0.37456000       0.49926700
    77  H          0.35200000       0.21180000      -0.00120000
    78  H          0.64800000       0.71180000       0.50120000
    79  H          0.64800000       0.78820000       0.00120000
    80  H          0.35200000       0.28820000       0.49880000
    81  C          0.10392000      -0.01524000       0.97155700
    82  C          0.89608000       0.48476000       0.52844300
    83  C          0.89608000       0.01524000       0.02844300
    84  C          0.10392000       0.51524000       0.47155700
    85  H          0.17470000      -0.02690000       0.95200000
    86  H          0.82530000       0.47310000       0.54800000
    87  H          0.82530000       0.02690000       0.04800000
    88  H          0.17470000       0.52690000       0.45200000
    89  C          0.21482000       0.28554000       0.05848300
    90  C          0.78518000       0.78554000       0.44151700
    91  C          0.78518000       0.71446000       0.94151700
    92  C          0.21482000       0.21446000       0.55848300
    93  O          0.41082150       0.40653000       0.05517200
    94  O          0.58917850       0.90653000       0.44482800
    95  O          0.58917850       0.59347000       0.94482800
    96  O          0.41082150       0.09347000       0.55517200
    97  H          0.47030000       0.49950000       0.07554000
    98  H          0.52970000      -0.00050000       0.42446000
    99  H          0.52970000       0.50050000       0.92446000
   100  H          0.47030000       0.00050000       0.57554000
   101  O          0.13064160       0.29193000       0.08415200
   102  O          0.86935840       0.79193000       0.41584800
   103  O          0.86935840       0.70807000       0.91584800
   104  O          0.13064160       0.20807000       0.58415200
