data_ORILAE
_symmetry_space_group_name_H-M    'P1'
_symmetry_Int_Tables_number       1
loop_
_symmetry_equiv_pos_site_id
_symmetry_equiv_pos_as_xyz
1 x,y,z
_cell_length_a                   14.73775
_cell_length_b                   5.22262
_cell_length_c                   22.79478
_cell_angle_alpha                90.0
_cell_angle_beta                 100.4662
_cell_angle_gamma                90.0
loop_
_atom_site_label
_atom_site_type_symbol
_atom_site_fract_x
_atom_site_fract_y
_atom_site_fract_z
     1  O          0.40656800       0.64938000       0.59120600
     2  O          0.09343200       0.14938000       0.90879400
     3  O          0.59343200       0.35062000       0.40879400
     4  O          0.90656800       0.85062000       0.09120600
     5  O          0.21953900       0.18783000       0.62900600
     6  O          0.28046100       0.68783000       0.87099400
     7  O          0.78046100       0.81217000       0.37099400
     8  O          0.71953900       0.31217000       0.12900600
     9  N          0.26529100       0.81147000       0.56322700
    10  N          0.23470900       0.31147000       0.93677300
    11  N          0.73470900       0.18853000       0.43677300
    12  N          0.76529100       0.68853000       0.06322700
    13  C          0.34551100       0.80227000       0.59964700
    14  C          0.15448900       0.30227000       0.90035300
    15  C          0.65448900       0.19773000       0.40035300
    16  C          0.84551100       0.69773000       0.09964700
    17  C          0.36382110      -0.02153000       0.65223700
    18  C          0.13617890       0.47847000       0.84776300
    19  C          0.63617890       0.02153000       0.34776300
    20  C          0.86382110       0.52153000       0.15223700
    21  C          0.30245110       0.16483000       0.66612700
    22  C          0.19754890       0.66483000       0.83387300
    23  C          0.69754890       0.83517000       0.33387300
    24  C          0.80245110       0.33517000       0.16612700
    25  C          0.44889120       0.95196000       0.68989700
    26  C          0.05110880       0.45196000       0.81010300
    27  C          0.55110880       0.04804000       0.31010300
    28  C          0.94889120       0.54804000       0.18989700
    29  C          0.32890150       0.31844000       0.71645900
    30  C          0.17109850       0.81844000       0.78354100
    31  C          0.67109850       0.68156000       0.28354100
    32  C          0.82890150       0.18156000       0.21645900
    33  C          0.47487150       0.10734000       0.73927800
    34  C          0.02512850       0.60734000       0.76072200
    35  C          0.52512850       0.89266000       0.26072200
    36  C          0.97487150       0.39266000       0.23927800
    37  C          0.41406150       0.28954000       0.75166800
    38  C          0.08593850       0.78954000       0.74833200
    39  C          0.58593850       0.71046000       0.24833200
    40  C          0.91406150       0.21046000       0.25166800
    41  C          0.15331140       0.36894000       0.64211110
    42  C          0.34668860       0.86894000       0.85788890
    43  C          0.84668860       0.63106000       0.35788890
    44  C          0.65331140       0.13106000       0.14211110
    45  C          0.07303180       0.35457000       0.59169160
    46  C          0.42696820       0.85457000       0.90830840
    47  C          0.92696820       0.64543000       0.40830840
    48  C          0.57303180       0.14543000       0.09169160
    49  H          0.09280000       0.39790000       0.55510000
    50  H          0.40720000       0.89790000       0.94490000
    51  H          0.90720000       0.60210000       0.44490000
    52  H          0.59280000       0.10210000       0.05510000
    53  H          0.02620000       0.47250000       0.59870000
    54  H          0.47380000       0.97250000       0.90130000
    55  H          0.97380000       0.52750000       0.40130000
    56  H          0.52620000       0.02750000       0.09870000
    57  H          0.04850000       0.18370000       0.58890000
    58  H          0.45150000       0.68370000       0.91110000
    59  H          0.95150000       0.81630000       0.41110000
    60  H          0.54850000       0.31630000       0.08890000
    61  H          0.22451600       0.92450000       0.56919000
    62  H          0.27548400       0.42450000       0.93081000
    63  H          0.77548400       0.07550000       0.43081000
    64  H          0.72451600       0.57550000       0.06919000
    65  H          0.25811300       0.70160000       0.53459000
    66  H          0.24188700       0.20160000       0.96541000
    67  H          0.74188700       0.29840000       0.46541000
    68  H          0.75811300       0.79840000       0.03459000
    69  H          0.49241500       0.81660000       0.68079000
    70  H          0.00758500       0.31660000       0.81921000
    71  H          0.50758500       0.18340000       0.31921000
    72  H         -0.00758500       0.68340000       0.18079000
    73  H          0.18341700       0.53750000       0.64531000
    74  H          0.31658300       0.03750000       0.85469000
    75  H          0.81658300       0.46250000       0.35469000
    76  H          0.68341700       0.96250000       0.14531000
    77  H          0.28731800       0.43850000       0.72511100
    78  H          0.21268200       0.93850000       0.77488900
    79  H          0.71268200       0.56150000       0.27488900
    80  H          0.78731800       0.06150000       0.22511100
    81  H          0.53841900       0.08450000       0.76441100
    82  H          0.96158100       0.58450000       0.73558900
    83  H          0.46158100       0.91550000       0.23558900
    84  H          0.03841900       0.41550000       0.26441100
    85  H          0.43061600       0.41050000       0.78561000
    86  H          0.06938400       0.91050000       0.71439000
    87  H          0.56938400       0.58950000       0.21439000
    88  H          0.93061600       0.08950000       0.28561000
    89  H          0.13651900       0.32850000       0.68111200
    90  H          0.36348100       0.82850000       0.81888800
    91  H          0.86348100       0.67150000       0.31888800
    92  H          0.63651900       0.17150000       0.18111200
    93  O          0.25466900       0.42632000       0.47283600
    94  O          0.24533100       0.92632000       0.02716400
    95  O          0.74533100       0.57368000       0.52716400
    96  O          0.75466900       0.07368000       0.97283600
    97  O          0.39452800       0.29033000       0.51517600
    98  O          0.10547200       0.79033000       0.98482400
    99  O          0.60547200       0.70967000       0.48482400
   100  O          0.89452800       0.20967000       0.01517600
   101  O          0.22404100       0.38683000       0.28363600
   102  O          0.27595900       0.88683000       0.21636400
   103  O          0.77595900       0.61317000       0.71636400
   104  O          0.72404100       0.11317000       0.78363600
   105  O          0.37060110       0.41153000       0.28719700
   106  O          0.12939890       0.91153000       0.21280300
   107  O          0.62939890       0.58847000       0.71280300
   108  O          0.87060110       0.08847000       0.78719700
   109  N          0.29972100       0.47643000       0.30309600
   110  N          0.20027900      -0.02357000       0.19690400
   111  N          0.70027900       0.52357000       0.69690400
   112  N          0.79972100       0.02357000       0.80309600
   113  O          0.12179900       0.02333000       0.46099600
   114  O          0.37820100       0.52333000       0.03900400
   115  O          0.87820100      -0.02333000       0.53900400
   116  O          0.62179900       0.47667000       0.96099600
   117  N          0.14135900       0.06993000       0.41293600
   118  N          0.35864100       0.56993000       0.08706400
   119  N          0.85864100       0.93007000       0.58706400
   120  N          0.64135900       0.43007000       0.91293600
   121  O          0.09116110       0.17874000       0.37300700
   122  O          0.40883890       0.67874000       0.12699300
   123  O          0.90883890       0.82126000       0.62699300
   124  O          0.59116110       0.32126000       0.87300700
   125  C          0.31399100       0.05773000       0.43353600
   126  C          0.18600900       0.55773000       0.06646400
   127  C          0.68600900       0.94227000       0.56646400
   128  C          0.81399100       0.44227000       0.93353600
   129  C          0.31800100       0.27693000       0.47639600
   130  C          0.18199900       0.77693000       0.02360400
   131  C          0.68199900       0.72307000       0.52360400
   132  C          0.81800100       0.22307000       0.97639600
   133  C          0.22994100      -0.02607000       0.40086600
   134  C          0.27005900       0.47393000       0.09913400
   135  C          0.77005900       0.02607000       0.59913400
   136  C          0.72994100       0.52607000       0.90086600
   137  C          0.22397110       0.78763000       0.35780600
   138  C          0.27602890       0.28763000       0.14219400
   139  C          0.77602890       0.21237000       0.64219400
   140  C          0.72397110       0.71237000       0.85780600
   141  C          0.30563110       0.68113000       0.34813600
   142  C          0.19436890       0.18113000       0.15186400
   143  C          0.69436890       0.31887000       0.65186400
   144  C          0.80563110       0.81887000       0.84813600
   145  C          0.39387110       0.94473000       0.42176700
   146  C          0.10612890       0.44473000       0.07823300
   147  C          0.60612890       0.05527000       0.57823300
   148  C          0.89387110       0.55527000       0.92176700
   149  C          0.39035120       0.75323000       0.37922700
   150  C          0.10964880       0.25323000       0.12077300
   151  C          0.60964880       0.24677000       0.62077300
   152  C          0.89035120       0.74677000       0.87922700
   153  H          0.45401400       0.00240000       0.44238000
   154  H          0.04598600       0.50240000       0.05762000
   155  H          0.54598600      -0.00240000       0.55762000
   156  H          0.95401400       0.49760000       0.94238000
   157  H          0.16591200       0.73340000       0.33538000
   158  H          0.33408800       0.23340000       0.16462000
   159  H          0.83408800       0.26660000       0.66462000
   160  H          0.66591200       0.76660000       0.83538000
   161  H          0.44461400       0.67940000       0.37199000
   162  H          0.05538600       0.17940000       0.12801000
   163  H          0.55538600       0.32060000       0.62801000
   164  H          0.94461400       0.82060000       0.87199000
   165  H          0.39520000       0.43260000       0.54381300
   166  H          0.10480000       0.93260000       0.95618700
   167  H          0.60480000       0.56740000       0.45618700
   168  H          0.89520000       0.06740000       0.04381300
