data_ORUXOP
_symmetry_space_group_name_H-M    'P1'
_symmetry_Int_Tables_number       1
loop_
_symmetry_equiv_pos_site_id
_symmetry_equiv_pos_as_xyz
1 x,y,z
_cell_length_a                   6.723911
_cell_length_b                   7.546012
_cell_length_c                   16.3163
_cell_angle_alpha                93.8272
_cell_angle_beta                 92.5382
_cell_angle_gamma                101.6592
loop_
_atom_site_label
_atom_site_type_symbol
_atom_site_fract_x
_atom_site_fract_y
_atom_site_fract_z
     1  C          0.74862000       0.17054180       0.95208800
     2  C          0.25138000       0.82945820       0.04791200
     3  C          0.93902000       0.15242000       0.93807900
     4  C          0.06098000       0.84758000       0.06192100
     5  H          0.05740000       0.20450000       0.96970000
     6  H          0.94260000       0.79550000       0.03030000
     7  C          0.92082000       0.03806190       0.86551900
     8  C          0.07918000       0.96193810       0.13448100
     9  H          0.02580000      -0.00190000       0.83960000
    10  H         -0.02580000       0.00190000       0.16040000
    11  C          0.72022000      -0.00311830       0.84041800
    12  C          0.27978000       0.00311830       0.15958200
    13  C          0.61602000       0.89257170       0.76843800
    14  C          0.38398000       0.10742830       0.23156200
    15  H          0.69090000       0.84860000       0.72810000
    16  H          0.30910000       0.15140000       0.27190000
    17  C          0.13220190       0.71358170       0.67667800
    18  C          0.86779810       0.28641830       0.32332200
    19  C          0.26447190       0.60452170       0.56166800
    20  C          0.73552810       0.39547830       0.43833200
    21  C          0.44188190       0.70214170       0.61858800
    22  C          0.55811810       0.29785830       0.38141200
    23  H          0.52790000       0.62040000       0.63520000
    24  H          0.47210000       0.37960000       0.36480000
    25  H          0.52330000       0.80270000       0.59320000
    26  H          0.47670000       0.19730000       0.40680000
    27  H          0.96570000       0.57220000       0.57751100
    28  H          0.03430000       0.42780000       0.42248900
    29  N          0.67403000       0.27514180       0.01452800
    30  N          0.32597000       0.72485820       0.98547200
    31  N          0.42250160       0.85964140       0.75924600
    32  N          0.57749840       0.14035860       0.24075400
    33  N          0.33855150       0.76533140       0.68774600
    34  N          0.66144850       0.23466860       0.31225400
    35  N          0.09333170       0.61950150       0.59978700
    36  N          0.90666830       0.38049850       0.40021300
    37  O          0.60942140       0.07813120       0.89429500
    38  O          0.39057860       0.92186880       0.10570500
    39  O          0.49082000       0.27379170       0.01373800
    40  O          0.50918000       0.72620830       0.98626200
    41  O          0.80143000       0.36222000       0.06587900
    42  O          0.19857000       0.63778000       0.93412100
    43  O          0.00583140       0.74179150       0.72338700
    44  O         -0.00583140       0.25820850       0.27661300
    45  O          0.27256150       0.52790150       0.49468600
    46  O          0.72743850       0.47209850       0.50531400
    47  C          0.18582000       0.12012180       0.58826900
    48  C          0.81418000       0.87987820       0.41173100
    49  C          0.32412000       0.21586170       0.65525800
    50  C          0.67588000       0.78413830       0.34474200
    51  C          0.25002000       0.28522000       0.72648900
    52  C          0.74998000       0.71478000       0.27351100
    53  H          0.11020000       0.26620000       0.73160000
    54  H          0.88980000       0.73380000       0.26840000
    55  C          0.37762000       0.38022000       0.78878900
    56  C          0.62238000       0.61978000       0.21121100
    57  H          0.32400000       0.42340000       0.83590000
    58  H          0.67600000       0.57660000       0.16410000
    59  C          0.58792000       0.41308180       0.78244900
    60  C          0.41208000       0.58691820       0.21755100
    61  C          0.66292000       0.34068190       0.71183900
    62  C          0.33708000       0.65931810       0.28816100
    63  H          0.80270000       0.35880000       0.70680000
    64  H          0.19730000       0.64120000       0.29320000
    65  C          0.53332000       0.24340180       0.64993900
    66  C          0.46668000       0.75659820       0.35006100
    67  H          0.58640000       0.19530000       0.60380000
    68  H          0.41360000       0.80470000       0.39620000
    69  H          0.66130000       0.57430000       0.88391300
    70  H          0.33870000       0.42570000       0.11608700
    71  H          0.84230000       0.54920000       0.83341100
    72  H          0.15770000       0.45080000       0.16658900
    73  N          0.71583000       0.50812000       0.84494100
    74  N          0.28417000       0.49188000       0.15505900
    75  O         -0.00482170       0.11771180       0.59358800
    76  O          0.00482170       0.88228820       0.40641200
    77  O          0.25187160       0.04287150       0.52747700
    78  O          0.74812840       0.95712850       0.47252300
    79  H          0.89460000       0.05230000       0.54281600
    80  H          0.10540000       0.94770000       0.45718400
