data_OSELIK
_symmetry_space_group_name_H-M    'P1'
_symmetry_Int_Tables_number       1
loop_
_symmetry_equiv_pos_site_id
_symmetry_equiv_pos_as_xyz
1 x,y,z
_cell_length_a                   5.00793
_cell_length_b                   6.19103
_cell_length_c                   16.54648
_cell_angle_alpha                94.1474
_cell_angle_beta                 96.5075
_cell_angle_gamma                96.4825
loop_
_atom_site_label
_atom_site_type_symbol
_atom_site_fract_x
_atom_site_fract_y
_atom_site_fract_z
     1  I          0.65610400       0.30504300       0.63064200
     2  I          0.34389600       0.69495700       0.36935800
     3  F         -0.03074000       0.88596000       0.65345130
     4  F          0.03074000       0.11404000       0.34654870
     5  F          0.76636000       0.34144000       0.44547150
     6  F          0.23364000       0.65856000       0.55452850
     7  C          0.85846000       0.12025000       0.55247190
     8  C          0.14154000       0.87975000       0.44752810
     9  C          0.88167000       0.17405000       0.47402000
    10  C          0.11833000       0.82595000       0.52598000
    11  C         -0.02093000       0.94515000       0.57725180
    12  C          0.02093000       0.05485000       0.42274820
    13  N          0.39738000       0.58117000       0.74652000
    14  N          0.60262000       0.41883000       0.25348000
    15  H          0.22711000       0.53580000       0.75230000
    16  H          0.77289000       0.46420000       0.24770000
    17  H          0.42910000       0.70190000       0.73630000
    18  H          0.57090000       0.29810000       0.26370000
    19  C          0.56057000       0.56406000       0.82148190
    20  C          0.43943000       0.43594000       0.17851810
    21  C          0.90847000       0.51485000       0.96295180
    22  C          0.09153000       0.48515000       0.03704820
    23  C          0.68817000       0.36086000       0.93292000
    24  C          0.31183000       0.63914000       0.06708000
    25  H          0.65558600       0.23799500       0.96114600
    26  H          0.34441400       0.76200500       0.03885400
    27  C          0.51487000       0.38116000       0.86302000
    28  C          0.48513000       0.61884000       0.13698000
    29  C          0.94339000       0.69636000       0.91952000
    30  C          0.05661000       0.30364000       0.08048000
    31  H          0.08549700       0.80504700       0.93773100
    32  H          0.91450300       0.19495300       0.06226900
    33  C          0.77249000       0.72127000       0.84953000
    34  C          0.22751000       0.27873000       0.15047000
    35  H          0.80177700       0.84503800       0.82155600
    36  H          0.19822300       0.15496200       0.17844400
    37  C          0.28699000       0.20408000       0.83383000
    38  C          0.71301000       0.79592000       0.16617000
    39  H          0.11703100       0.25928900       0.83802900
    40  H          0.88296900       0.74071100       0.16197100
    41  H          0.30052400       0.08340100       0.86673800
    42  H          0.69947600       0.91659900       0.13326200
    43  H          0.29736700       0.15605300       0.77785300
    44  H          0.70263300       0.84394700       0.22214700
    45  H          0.57110000       0.29990000       0.26430000
    46  H          0.42890000       0.70010000       0.73570000
