data_OSELUW
_symmetry_space_group_name_H-M    'P1'
_symmetry_Int_Tables_number       1
loop_
_symmetry_equiv_pos_site_id
_symmetry_equiv_pos_as_xyz
1 x,y,z
_cell_length_a                   8.54665
_cell_length_b                   11.97587
_cell_length_c                   26.61689
_cell_angle_alpha                90.0
_cell_angle_beta                 90.0
_cell_angle_gamma                90.0
loop_
_atom_site_label
_atom_site_type_symbol
_atom_site_fract_x
_atom_site_fract_y
_atom_site_fract_z
     1  I          0.52301500       0.71559300       0.65827200
     2  I          0.97698500       0.28440700       0.15827200
     3  I          0.47698500       0.21559300       0.84172800
     4  I          0.02301500       0.78440700       0.34172800
     5  I          0.47698500       0.28440700       0.34172800
     6  I          0.02301500       0.71559300       0.84172800
     7  I          0.52301500       0.78440700       0.15827200
     8  I          0.97698500       0.21559300       0.65827200
     9  I          0.50114500       0.68008400       0.88402200
    10  I         -0.00114500       0.31991600       0.38402200
    11  I          0.49885500       0.18008400       0.61597800
    12  I          0.00114500       0.81991600       0.11597800
    13  I          0.49885500       0.31991600       0.11597800
    14  I          0.00114500       0.68008400       0.61597800
    15  I          0.50114500       0.81991600       0.38402200
    16  I         -0.00114500       0.18008400       0.88402200
    17  F          0.43604000       0.63973000       0.76862110
    18  F          0.06396000       0.36027000       0.26862110
    19  F          0.56396000       0.13973000       0.73137890
    20  F          0.93604000       0.86027000       0.23137890
    21  F          0.56396000       0.36027000       0.23137890
    22  F          0.93604000       0.63973000       0.73137890
    23  F          0.43604000       0.86027000       0.26862110
    24  F          0.06396000       0.13973000       0.76862110
    25  F          0.69374000       0.90773000       0.86811110
    26  F          0.80626000       0.09227000       0.36811110
    27  F          0.30626000       0.40773000       0.63188890
    28  F          0.19374000       0.59227000       0.13188890
    29  F          0.30626000       0.09227000       0.13188890
    30  F          0.19374000       0.90773000       0.63188890
    31  F          0.69374000       0.59227000       0.36811110
    32  F          0.80626000       0.40773000       0.86811110
    33  F          0.72454000       0.92863000       0.69328120
    34  F          0.77546000       0.07137000       0.19328120
    35  F          0.27546000       0.42863000       0.80671880
    36  F          0.22454000       0.57137000       0.30671880
    37  F          0.27546000       0.07137000       0.30671880
    38  F          0.22454000       0.92863000       0.80671880
    39  F          0.72454000       0.57137000       0.19328120
    40  F          0.77546000       0.42863000       0.69328120
    41  F          0.79754000       0.00913000       0.78456150
    42  F          0.70246000      -0.00913000       0.28456150
    43  F          0.20246000       0.50913000       0.71543850
    44  F          0.29754000       0.49087000       0.21543850
    45  F          0.20246000      -0.00913000       0.21543850
    46  F          0.29754000       0.00913000       0.71543850
    47  F          0.79754000       0.49087000       0.28456150
    48  F          0.70246000       0.50913000       0.78456150
    49  C          0.57736000       0.78184000       0.72887180
    50  C          0.92264000       0.21816000       0.22887180
    51  C          0.42264000       0.28184000       0.77112820
    52  C          0.07736000       0.71816000       0.27112820
    53  C          0.42264000       0.21816000       0.27112820
    54  C          0.07736000       0.78184000       0.77112820
    55  C          0.57736000       0.71816000       0.22887180
    56  C          0.92264000       0.28184000       0.72887180
    57  C          0.66937000       0.87685000       0.73422190
    58  C          0.83063000       0.12315000       0.23422190
    59  C          0.33063000       0.37685000       0.76577810
    60  C          0.16937000       0.62315000       0.26577810
    61  C          0.33063000       0.12315000       0.26577810
    62  C          0.16937000       0.87685000       0.76577810
    63  C          0.66937000       0.62315000       0.23422190
    64  C          0.83063000       0.37685000       0.73422190
    65  C          0.56376000       0.76925000       0.82008190
    66  C          0.93624000       0.23075000       0.32008190
    67  C          0.43624000       0.26925000       0.67991810
    68  C          0.06376000       0.73075000       0.17991810
    69  C          0.43624000       0.23075000       0.17991810
    70  C          0.06376000       0.76925000       0.67991810
    71  C          0.56376000       0.73075000       0.32008190
    72  C          0.93624000       0.26925000       0.82008190
    73  C          0.52576000       0.73145000       0.77255190
    74  C          0.97424000       0.26855000       0.27255190
    75  C          0.47424000       0.23145000       0.72744810
    76  C          0.02576000       0.76855000       0.22744810
    77  C          0.47424000       0.26855000       0.22744810
    78  C          0.02576000       0.73145000       0.72744810
    79  C          0.52576000       0.76855000       0.27255190
    80  C          0.97424000       0.23145000       0.77255190
    81  C          0.65336000       0.86535000       0.82292000
    82  C          0.84664000       0.13465000       0.32292000
    83  C          0.34664000       0.36535000       0.67708000
    84  C          0.15336000       0.63465000       0.17708000
    85  C          0.34664000       0.13465000       0.17708000
    86  C          0.15336000       0.86535000       0.67708000
    87  C          0.65336000       0.63465000       0.32292000
    88  C          0.84664000       0.36535000       0.82292000
    89  C          0.70606000       0.91864000       0.78072000
    90  C          0.79394000       0.08136000       0.28072000
    91  C          0.29394000       0.41864000       0.71928000
    92  C          0.20606000       0.58136000       0.21928000
    93  C          0.29394000       0.08136000       0.21928000
    94  C          0.20606000       0.91864000       0.71928000
    95  C          0.70606000       0.58136000       0.28072000
    96  C          0.79394000       0.41864000       0.78072000
    97  N          0.46467000       0.60635000       0.55802000
    98  N          0.03533000       0.39365000       0.05802000
    99  N          0.53533000       0.10635000       0.94198000
   100  N          0.96467000       0.89365000       0.44198000
   101  N          0.53533000       0.39365000       0.44198000
   102  N          0.96467000       0.60635000       0.94198000
   103  N          0.46467000       0.89365000       0.05802000
   104  N          0.03533000       0.10635000       0.55802000
   105  H          0.40760000       0.55040000       0.57320000
   106  H          0.09240000       0.44960000       0.07320000
   107  H          0.59240000       0.05040000       0.92680000
   108  H          0.90760000       0.94960000       0.42680000
   109  H          0.59240000       0.44960000       0.42680000
   110  H          0.90760000       0.55040000       0.92680000
   111  H          0.40760000       0.94960000       0.07320000
   112  H          0.09240000       0.05040000       0.57320000
   113  H          0.40660000       0.64450000       0.53620000
   114  H          0.09340000       0.35550000       0.03620000
   115  H          0.59340000       0.14450000       0.96380000
   116  H          0.90660000       0.85550000       0.46380000
   117  H          0.59340000       0.35550000       0.46380000
   118  H          0.90660000       0.64450000       0.96380000
   119  H          0.40660000       0.85550000       0.03620000
   120  H          0.09340000       0.14450000       0.53620000
   121  C          0.61318000       0.57495000       0.54022000
   122  C          0.88682000       0.42505000       0.04022000
   123  C          0.38682000       0.07495000       0.95978000
   124  C          0.11318000       0.92505000       0.45978000
   125  C          0.38682000       0.42505000       0.45978000
   126  C          0.11318000       0.57495000       0.95978000
   127  C          0.61318000       0.92505000       0.04022000
   128  C          0.88682000       0.07495000       0.54022000
   129  C          0.92017000       0.51554000       0.50832180
   130  C          0.57983000       0.48446000       0.00832180
   131  C          0.07983000       0.01554000       0.99167820
   132  C          0.42017000       0.98446000       0.49167820
   133  C          0.07983000       0.48446000       0.49167820
   134  C          0.42017000       0.51554000       0.99167820
   135  C          0.92017000       0.98446000       0.00832180
   136  C          0.57983000       0.01554000       0.50832180
   137  C          0.69228000       0.48765000       0.56202000
   138  C          0.80772000       0.51235000       0.06202000
   139  C          0.30772000       0.98765000       0.93798000
   140  C          0.19228000       0.01235000       0.43798000
   141  C          0.30772000       0.51235000       0.43798000
   142  C          0.19228000       0.48765000       0.93798000
   143  C          0.69228000       0.01235000       0.06202000
   144  C          0.80772000       0.98765000       0.56202000
   145  H          0.64466500       0.44754500       0.58779100
   146  H          0.85533500       0.55245500       0.08779100
   147  H          0.35533500       0.94754500       0.91220900
   148  H          0.14466500       0.05245500       0.41220900
   149  H          0.35533500       0.55245500       0.41220900
   150  H          0.14466500       0.44754500       0.91220900
   151  H          0.64466500       0.05245500       0.08779100
   152  H          0.85533500       0.94754500       0.58779100
   153  C          0.68858000       0.63255000       0.50232000
   154  C          0.81142000       0.36745000       0.00232000
   155  C          0.31142000       0.13255000      -0.00232000
   156  C          0.18858000       0.86745000       0.49768000
   157  C          0.31142000       0.36745000       0.49768000
   158  C          0.18858000       0.63255000      -0.00232000
   159  C          0.68858000       0.86745000       0.00232000
   160  C          0.81142000       0.13255000       0.50232000
   161  H          0.63795600       0.69224000       0.48699400
   162  H          0.86204400       0.30776000       0.98699400
   163  H          0.36204400       0.19224000       0.01300600
   164  H          0.13795600       0.80776000       0.51300600
   165  H          0.36204400       0.30776000       0.51300600
   166  H          0.13795600       0.69224000       0.01300600
   167  H          0.63795600       0.80776000       0.98699400
   168  H          0.86204400       0.19224000       0.48699400
   169  C          0.84038000       0.45815000       0.54652000
   170  C          0.65962000       0.54185000       0.04652000
   171  C          0.15962000       0.95815000       0.95348000
   172  C          0.34038000       0.04185000       0.45348000
   173  C          0.15962000       0.54185000       0.45348000
   174  C          0.34038000       0.45815000       0.95348000
   175  C          0.84038000       0.04185000       0.04652000
   176  C          0.65962000       0.95815000       0.54652000
   177  H          0.88939100       0.39784900       0.56200100
   178  H          0.61060900       0.60215100       0.06200100
   179  H          0.11060900       0.89784900       0.93799900
   180  H          0.38939100       0.10215100       0.43799900
   181  H          0.11060900       0.60215100       0.43799900
   182  H          0.38939100       0.39784900       0.93799900
   183  H          0.88939100       0.10215100       0.06200100
   184  H          0.61060900       0.89784900       0.56200100
   185  C          0.83628000       0.60365000       0.48682000
   186  C          0.66372000       0.39635000       0.98682000
   187  C          0.16372000       0.10365000       0.01318000
   188  C          0.33628000       0.89635000       0.51318000
   189  C          0.16372000       0.39635000       0.51318000
   190  C          0.33628000       0.60365000       0.01318000
   191  C          0.83628000       0.89635000       0.98682000
   192  C          0.66372000       0.10365000       0.48682000
   193  H          0.88232400       0.64419400       0.46090000
   194  H          0.61767600       0.35580600       0.96090000
   195  H          0.11767600       0.14419400       0.03910000
   196  H          0.38232400       0.85580600       0.53910000
   197  H          0.11767600       0.35580600       0.53910000
   198  H          0.38232400       0.64419400       0.03910000
   199  H          0.88232400       0.85580600       0.96090000
   200  H          0.61767600       0.14419400       0.46090000
   201  H          0.59360000       0.45040000       0.42720000
   202  H          0.90640000       0.54960000       0.92720000
   203  H          0.40640000       0.95040000       0.07280000
   204  H          0.09360000       0.04960000       0.57280000
   205  H          0.40640000       0.54960000       0.57280000
   206  H          0.09360000       0.45040000       0.07280000
   207  H          0.59360000       0.04960000       0.92720000
   208  H          0.90640000       0.95040000       0.42720000
   209  H          0.59460000       0.35650000       0.46420000
   210  H          0.90540000       0.64350000       0.96420000
   211  H          0.40540000       0.85650000       0.03580000
   212  H          0.09460000       0.14350000       0.53580000
   213  H          0.40540000       0.64350000       0.53580000
   214  H          0.09460000       0.35650000       0.03580000
   215  H          0.59460000       0.14350000       0.96420000
   216  H          0.90540000       0.85650000       0.46420000
