data_OSEXOA
_symmetry_space_group_name_H-M    'P1'
_symmetry_Int_Tables_number       1
loop_
_symmetry_equiv_pos_site_id
_symmetry_equiv_pos_as_xyz
1 x,y,z
_cell_length_a                   10.11863
_cell_length_b                   10.11863
_cell_length_c                   6.34884
_cell_angle_alpha                90.0
_cell_angle_beta                 90.0
_cell_angle_gamma                120.0
loop_
_atom_site_label
_atom_site_type_symbol
_atom_site_fract_x
_atom_site_fract_y
_atom_site_fract_z
     1  B          0.66670000       0.33330000       0.25013000
     2  B          0.33330000       0.66670000       0.74987000
     3  H          0.85280000       0.31920000       0.24730000
     4  H          0.68080000       0.53360000       0.24730000
     5  H          0.46640000       0.14720000       0.24730000
     6  H          0.14720000       0.68080000       0.75270000
     7  H          0.31920000       0.46640000       0.75270000
     8  H          0.53360000       0.85280000       0.75270000
     9  O          0.74550900       0.25692100       0.24995140
    10  O          0.74307900       0.48858800       0.24995140
    11  O          0.51141200       0.25449100       0.24995140
    12  O          0.25449100       0.74307900       0.75004860
    13  O          0.25692100       0.51141200       0.75004860
    14  O          0.48858800       0.74550900       0.75004860
    15  C          0.26637140       0.36937130       0.24992000
    16  C          0.63062870       0.89700010       0.24992000
    17  C          0.10299990       0.73362860       0.24992000
    18  C          0.73362860       0.63062870       0.75008000
    19  C          0.36937130       0.10299990       0.75008000
    20  C          0.89700010       0.26637140       0.75008000
    21  H          0.32690000       0.32170000       0.24990000
    22  H          0.67830000       0.00520000       0.24990000
    23  H         -0.00520000       0.67310000       0.24990000
    24  H          0.67310000       0.67830000       0.75010000
    25  H          0.32170000      -0.00520000       0.75010000
    26  H          0.00520000       0.32690000       0.75010000
    27  C          0.11258150       0.30116140       0.24982000
    28  C          0.69883860       0.81142010       0.24982000
    29  C          0.18857990       0.88741850       0.24982000
    30  C          0.88741850       0.69883860       0.75018000
    31  C          0.30116140       0.18857990       0.75018000
    32  C          0.81142010       0.11258150       0.75018000
    33  H          0.04640000       0.19370000       0.24960000
    34  H          0.80630000       0.85270000       0.24960000
    35  H          0.14730000       0.95360000       0.24960000
    36  H          0.95360000       0.80630000       0.75040000
    37  H          0.19370000       0.14730000       0.75040000
    38  H          0.85270000       0.04640000       0.75040000
    39  C          0.18798130       0.53726140       0.24997190
    40  C          0.46273860       0.65071990       0.24997190
    41  C          0.34928010       0.81201870       0.24997190
    42  C          0.81201870       0.46273860       0.75002810
    43  C          0.53726140       0.34928010       0.75002810
    44  C          0.65071990       0.18798130       0.75002810
    45  N          0.31655110       0.52476110       0.24991160
    46  N          0.47523890       0.79179000       0.24991160
    47  N          0.20821000       0.68344890       0.24991160
    48  N          0.68344890       0.47523890       0.75008840
    49  N          0.52476110       0.20821000       0.75008840
    50  N          0.79179000       0.31655110       0.75008840
    51  N          0.06238120       0.40658110       0.24996170
    52  N          0.59341890       0.65580010       0.24996170
    53  N          0.34419990       0.93761880       0.24996170
    54  N          0.93761880       0.59341890       0.75003830
    55  N          0.40658110       0.34419990       0.75003830
    56  N          0.65580010       0.06238120       0.75003830
