data_OTIREQ
_symmetry_space_group_name_H-M    'P1'
_symmetry_Int_Tables_number       1
loop_
_symmetry_equiv_pos_site_id
_symmetry_equiv_pos_as_xyz
1 x,y,z
_cell_length_a                   7.3397
_cell_length_b                   10.7831
_cell_length_c                   18.64117
_cell_angle_alpha                90.0
_cell_angle_beta                 90.0
_cell_angle_gamma                90.0
loop_
_atom_site_label
_atom_site_type_symbol
_atom_site_fract_x
_atom_site_fract_y
_atom_site_fract_z
     1  S          0.81679900       0.88255600       0.21063300
     2  S          0.68320100       0.11744400       0.71063300
     3  S          0.18320100       0.38255600       0.28936700
     4  S          0.31679900       0.61744400       0.78936700
     5  F          0.01802000       0.85003000       0.21616100
     6  F          0.48198000       0.14997000       0.71616100
     7  F         -0.01802000       0.35003000       0.28383900
     8  F          0.51802000       0.64997000       0.78383900
     9  F          0.82353000       0.92770180       0.13121900
    10  F          0.67647000       0.07229820       0.63121900
    11  F          0.17647000       0.42770180       0.36878100
    12  F          0.32353000       0.57229820       0.86878100
    13  F          0.78124000       0.74071180       0.18044120
    14  F          0.71876000       0.25928820       0.68044120
    15  F          0.21876000       0.24071180       0.31955880
    16  F          0.28124000       0.75928820       0.81955880
    17  F          0.87214000       0.02392180       0.23550120
    18  F          0.62786000       0.97607820       0.73550120
    19  F          0.12786000       0.52392180       0.26449880
    20  F          0.37214000       0.47607820       0.76449880
    21  N          0.84563000       0.81642000       0.34503110
    22  N          0.65437000       0.18358000       0.84503110
    23  N          0.15437000       0.31642000       0.15496890
    24  N          0.34563000       0.68358000       0.65496890
    25  C          0.87044000       0.69963000       0.36458150
    26  C          0.62956000       0.30037000       0.86458150
    27  C          0.12956000       0.19963000       0.13541850
    28  C          0.37044000       0.80037000       0.63541850
    29  H          0.88820000       0.63930000       0.32810000
    30  H          0.61180000       0.36070000       0.82810000
    31  H          0.11180000       0.13930000       0.17190000
    32  H          0.38820000       0.86070000       0.67190000
    33  C          0.87163000       0.66062000       0.43518140
    34  C          0.62837000       0.33938000       0.93518140
    35  C          0.12837000       0.16062000       0.06481860
    36  C          0.37163000       0.83938000       0.56481860
    37  H          0.89070000       0.57570000       0.44650000
    38  H          0.60930000       0.42430000       0.94650000
    39  H          0.10930000       0.07570000       0.05350000
    40  H          0.39070000       0.92430000       0.55350000
    41  C          0.84483000       0.74692000       0.48921130
    42  C          0.65517000       0.25308000       0.98921130
    43  C          0.15517000       0.24692000       0.01078870
    44  C          0.34483000       0.75308000       0.51078870
    45  C          0.81683000       0.86962000       0.46921130
    46  C          0.68317000       0.13038000       0.96921130
    47  C          0.18317000       0.36962000       0.03078870
    48  C          0.31683000       0.63038000       0.53078870
    49  H          0.79670000       0.93180000       0.50440000
    50  H          0.70330000       0.06820000       0.00440000
    51  H          0.20330000       0.43180000      -0.00440000
    52  H          0.29670000       0.56820000       0.49560000
    53  C          0.81874000       0.89922000       0.39703140
    54  C          0.68126000       0.10078000       0.89703140
    55  C          0.18126000       0.39922000       0.10296860
    56  C          0.31874000       0.60078000       0.60296860
    57  H          0.79970000       0.98330000       0.38380000
    58  H          0.70030000       0.01670000       0.88380000
    59  H          0.20030000       0.48330000       0.11620000
    60  H          0.29970000       0.51670000       0.61620000
    61  N          0.87313000       0.63492000       0.70805120
    62  N          0.62687000       0.36508000       0.20805120
    63  N          0.12687000       0.13492000       0.79194880
    64  N          0.37313000       0.86508000       0.29194880
    65  H          0.88440000       0.61060000       0.75290000
    66  H          0.61560000       0.38940000       0.25290000
    67  H          0.11560000       0.11060000       0.74710000
    68  H          0.38440000       0.88940000       0.24710000
    69  C          0.81274000       0.55682000       0.65824140
    70  C          0.68726000       0.44318000       0.15824140
    71  C          0.18726000       0.05682000       0.84175860
    72  C          0.31274000       0.94318000       0.34175860
    73  H          0.77780000       0.47540000       0.67210000
    74  H          0.72220000       0.52460000       0.17210000
    75  H          0.22220000       0.97540000       0.82790000
    76  H          0.27780000       0.02460000       0.32790000
    77  C          0.79943000       0.59042000       0.58729140
    78  C          0.70057000       0.40958000       0.08729140
    79  C          0.20057000       0.09042000       0.91270860
    80  C          0.29943000       0.90958000       0.41270860
    81  H          0.75710000       0.53250000       0.55270000
    82  H          0.74290000       0.46750000       0.05270000
    83  H          0.24290000       0.03250000       0.94730000
    84  H          0.25710000       0.96750000       0.44730000
    85  C          0.84803000       0.70962000       0.56632130
    86  C          0.65197000       0.29038000       0.06632130
    87  C          0.15197000       0.20962000       0.93367870
    88  C          0.34803000       0.79038000       0.43367870
    89  C          0.90603000       0.79092000       0.61940130
    90  C          0.59397000       0.20908000       0.11940130
    91  C          0.09397000       0.29092000       0.88059870
    92  C          0.40603000       0.70908000       0.38059870
    93  H          0.93840000       0.87370000       0.60750000
    94  H          0.56160000       0.12630000       0.10750000
    95  H          0.06160000       0.37370000       0.89250000
    96  H          0.43840000       0.62630000       0.39250000
    97  C          0.91623000       0.75062000       0.68928140
    98  C          0.58377000       0.24938000       0.18928140
    99  C          0.08377000       0.25062000       0.81071860
   100  C          0.41623000       0.74938000       0.31071860
   101  H          0.95520000       0.80690000       0.72530000
   102  H          0.54480000       0.19310000       0.22530000
   103  H          0.04480000       0.30690000       0.77470000
   104  H          0.45520000       0.69310000       0.27470000
   105  F          0.92992000       0.55520150       0.82786900
   106  F          0.57008000       0.44479850       0.32786900
   107  F          0.07008000       0.05520150       0.67213100
   108  F          0.42992000       0.94479850       0.17213100
   109  S          0.91832100       0.72199600       0.92567400
   110  S          0.58167900       0.27800400       0.42567400
   111  S          0.08167900       0.22199600       0.57432600
   112  S          0.41832100       0.77800400       0.07432600
   113  F          0.72123000       0.68282000       0.92069130
   114  F          0.77877000       0.31718000       0.42069130
   115  F          0.27877000       0.18282000       0.57930870
   116  F          0.22123000       0.81718000       0.07930870
   117  F          0.89743000       0.82792000       0.98154110
   118  F          0.60257000       0.17208000       0.48154110
   119  F          0.10257000       0.32792000       0.51845890
   120  F          0.39743000       0.67208000       0.01845890
   121  F          0.87784000       0.82463190       0.86327110
   122  F          0.62216000       0.17536810       0.36327110
   123  F          0.12216000       0.32463190       0.63672890
   124  F          0.37784000       0.67536810       0.13672890
   125  F          0.94034000       0.62302000      -0.00727870
   126  F          0.55966000       0.37698000       0.49272130
   127  F          0.05966000       0.12302000       0.50727870
   128  F          0.44034000       0.87698000       0.00727870
