data_OTIRAM
_symmetry_space_group_name_H-M    'P1'
_symmetry_Int_Tables_number       1
loop_
_symmetry_equiv_pos_site_id
_symmetry_equiv_pos_as_xyz
1 x,y,z
_cell_length_a                   16.53013
_cell_length_b                   16.53013
_cell_length_c                   8.3226
_cell_angle_alpha                90.0
_cell_angle_beta                 90.0
_cell_angle_gamma                90.0
loop_
_atom_site_label
_atom_site_type_symbol
_atom_site_fract_x
_atom_site_fract_y
_atom_site_fract_z
     1  S          0.62403500       0.35251500       0.23248120
     2  S          0.37596500       0.64748500       0.23248120
     3  S          0.35251500       0.37596500       0.76751880
     4  S          0.64748500       0.62403500       0.76751880
     5  S          0.87596500       0.85251500       0.26751880
     6  S          0.12403500       0.14748500       0.26751880
     7  S          0.14748500       0.87596500       0.73248120
     8  S          0.85251500       0.12403500       0.73248120
     9  F          0.60512160       0.39576150       0.38813000
    10  F          0.39487840       0.60423850       0.38813000
    11  F          0.39576150       0.39487840       0.61187000
    12  F          0.60423850       0.60512160       0.61187000
    13  F          0.89487840       0.89576150       0.11187000
    14  F          0.10512160       0.10423850       0.11187000
    15  F          0.10423850       0.89487840       0.88813000
    16  F          0.89576150       0.10512160       0.88813000
    17  F          0.57385170       0.40375160       0.11553000
    18  F          0.42614830       0.59624840       0.11553000
    19  F          0.40375160       0.42614830       0.88447000
    20  F          0.59624840       0.57385170       0.88447000
    21  F          0.92614830       0.90375160       0.38447000
    22  F          0.07385170       0.09624840       0.38447000
    23  F          0.09624840       0.92614830       0.61553000
    24  F          0.90375160       0.07385170       0.61553000
    25  F          0.69840170       0.41734160       0.20843000
    26  F          0.30159830       0.58265840       0.20843000
    27  F          0.41734160       0.30159830       0.79157000
    28  F          0.58265840       0.69840170       0.79157000
    29  F          0.80159830       0.91734160       0.29157000
    30  F          0.19840170       0.08265840       0.29157000
    31  F          0.08265840       0.80159830       0.70843000
    32  F          0.91734160       0.19840170       0.70843000
    33  F          0.54391130       0.29559160       0.26083000
    34  F          0.45608870       0.70440840       0.26083000
    35  F          0.29559160       0.45608870       0.73917000
    36  F          0.70440840       0.54391130       0.73917000
    37  F          0.95608870       0.79559160       0.23917000
    38  F          0.04391130       0.20440840       0.23917000
    39  F          0.20440840       0.95608870       0.76083000
    40  F          0.79559160       0.04391130       0.76083000
    41  S          0.75508400       0.15456400       0.24840110
    42  S          0.24491600       0.84543600       0.24840110
    43  S          0.15456400       0.24491600       0.75159890
    44  S          0.84543600       0.75508400       0.75159890
    45  S          0.74491600       0.65456400       0.25159890
    46  S          0.25508400       0.34543600       0.25159890
    47  S          0.34543600       0.74491600       0.74840110
    48  S          0.65456400       0.25508400       0.74840110
    49  F          0.65761110       0.12811120       0.22622000
    50  F          0.34238890       0.87188880       0.22622000
    51  F          0.12811120       0.34238890       0.77378000
    52  F          0.87188880       0.65761110       0.77378000
    53  F          0.84238890       0.62811120       0.27378000
    54  F          0.15761110       0.37188880       0.27378000
    55  F          0.37188880       0.84238890       0.72622000
    56  F          0.62811120       0.15761110       0.72622000
    57  F          0.77627110       0.08254100       0.13962000
    58  F          0.22372890       0.91745900       0.13962000
    59  F          0.08254100       0.22372890       0.86038000
    60  F          0.91745900       0.77627110       0.86038000
    61  F          0.72372890       0.58254100       0.36038000
    62  F          0.27627110       0.41745900       0.36038000
    63  F          0.41745900       0.72372890       0.63962000
    64  F          0.58254100       0.27627110       0.63962000
    65  F          0.85306110       0.16804120       0.27783000
    66  F          0.14693890       0.83195880       0.27783000
    67  F          0.16804120       0.14693890       0.72217000
    68  F          0.83195880       0.85306110       0.72217000
    69  F          0.64693890       0.66804120       0.22217000
    70  F          0.35306110       0.33195880       0.22217000
    71  F          0.33195880       0.64693890       0.77783000
    72  F          0.66804120       0.35306110       0.77783000
    73  F          0.75294120       0.10870120       0.41032000
    74  F          0.24705880       0.89129880       0.41032000
    75  F          0.10870120       0.24705880       0.58968000
    76  F          0.89129880       0.75294120       0.58968000
    77  F          0.74705880       0.60870120       0.08968000
    78  F          0.25294120       0.39129880       0.08968000
    79  F          0.39129880       0.74705880       0.91032000
    80  F          0.60870120       0.25294120       0.91032000
    81  F          0.72461100       0.27205100       0.45802000
    82  F          0.27538900       0.72794900       0.45802000
    83  F          0.27205100       0.27538900       0.54198000
    84  F          0.72794900       0.72461100       0.54198000
    85  F          0.77538900       0.77205100       0.04198000
    86  F          0.22461100       0.22794900       0.04198000
    87  F          0.22794900       0.77538900       0.95802000
    88  F          0.77205100       0.22461100       0.95802000
    89  N          0.84154140       0.35975130       0.48533000
    90  N          0.15845860       0.64024870       0.48533000
    91  N          0.35975130       0.15845860       0.51467000
    92  N          0.64024870       0.84154140       0.51467000
    93  N          0.65845860       0.85975130       0.01467000
    94  N          0.34154140       0.14024870       0.01467000
    95  N          0.14024870       0.65845860      -0.01467000
    96  N          0.85975130       0.34154140      -0.01467000
    97  H          0.80150000       0.32490000       0.47850000
    98  H          0.19850000       0.67510000       0.47850000
    99  H          0.32490000       0.19850000       0.52150000
   100  H          0.67510000       0.80150000       0.52150000
   101  H          0.69850000       0.82490000       0.02150000
   102  H          0.30150000       0.17510000       0.02150000
   103  H          0.17510000       0.69850000       0.97850000
   104  H          0.82490000       0.30150000       0.97850000
   105  C          0.82686190       0.43560190       0.52824000
   106  C          0.17313810       0.56439810       0.52824000
   107  C          0.43560190       0.17313810       0.47176000
   108  C          0.56439810       0.82686190       0.47176000
   109  C          0.67313810       0.93560190       0.97176000
   110  C          0.32686190       0.06439810       0.97176000
   111  C          0.06439810       0.67313810       0.02824000
   112  C          0.93560190       0.32686190       0.02824000
   113  H          0.77300000       0.45110000       0.55340000
   114  H          0.22700000       0.54890000       0.55340000
   115  H          0.45110000       0.22700000       0.44660000
   116  H          0.54890000       0.77300000       0.44660000
   117  H          0.72700000       0.95110000       0.94660000
   118  H          0.27300000       0.04890000       0.94660000
   119  H          0.04890000       0.72700000       0.05340000
   120  H          0.95110000       0.27300000       0.05340000
   121  C          0.88771170       0.49254180       0.53724000
   122  C          0.11228830       0.50745820       0.53724000
   123  C          0.49254180       0.11228830       0.46276000
   124  C          0.50745820       0.88771170       0.46276000
   125  C          0.61228830      -0.00745820       0.96276000
   126  C          0.38771170       0.00745820       0.96276000
   127  C          0.00745820       0.61228830       0.03724000
   128  C         -0.00745820       0.38771170       0.03724000
   129  H          0.87580000       0.54660000       0.56810000
   130  H          0.12420000       0.45340000       0.56810000
   131  H          0.54660000       0.12420000       0.43190000
   132  H          0.45340000       0.87580000       0.43190000
   133  H          0.62420000       0.04660000       0.93190000
   134  H          0.37580000       0.95340000       0.93190000
   135  H          0.95340000       0.62420000       0.06810000
   136  H          0.04660000       0.37580000       0.06810000
   137  C          0.96613180       0.47020170       0.50073000
   138  C          0.03386820       0.52979830       0.50073000
   139  C          0.47020170       0.03386820       0.49927000
   140  C          0.52979830       0.96613180       0.49927000
   141  C          0.53386820       0.97020170      -0.00073000
   142  C          0.46613180       0.02979830      -0.00073000
   143  C          0.02979830       0.53386820       0.00073000
   144  C          0.97020170       0.46613180       0.00073000
   145  C          0.98031180       0.39020180       0.45954000
   146  C          0.01968820       0.60979820       0.45954000
   147  C          0.39020180       0.01968820       0.54046000
   148  C          0.60979820       0.98031180       0.54046000
   149  C          0.51968820       0.89020180       0.04046000
   150  C          0.48031180       0.10979820       0.04046000
   151  C          0.10979820       0.51968820       0.95954000
   152  C          0.89020180       0.48031180       0.95954000
   153  H          0.03370000       0.37260000       0.43620000
   154  H          0.96630000       0.62740000       0.43620000
   155  H          0.37260000       0.96630000       0.56380000
   156  H          0.62740000       0.03370000       0.56380000
   157  H          0.46630000       0.87260000       0.06380000
   158  H          0.53370000       0.12740000       0.06380000
   159  H          0.12740000       0.46630000       0.93620000
   160  H          0.87260000       0.53370000       0.93620000
   161  C          0.91683190       0.33617180       0.45244000
   162  C          0.08316810       0.66382820       0.45244000
   163  C          0.33617180       0.08316810       0.54756000
   164  C          0.66382820       0.91683190       0.54756000
   165  C          0.58316810       0.83617180       0.04756000
   166  C          0.41683190       0.16382820       0.04756000
   167  C          0.16382820       0.58316810       0.95244000
   168  C          0.83617180       0.41683190       0.95244000
   169  H          0.92690000       0.28150000       0.42370000
   170  H          0.07310000       0.71850000       0.42370000
   171  H          0.28150000       0.07310000       0.57630000
   172  H          0.71850000       0.92690000       0.57630000
   173  H          0.57310000       0.78150000       0.07630000
   174  H          0.42690000       0.21850000       0.07630000
   175  H          0.21850000       0.57310000       0.92370000
   176  H          0.78150000       0.42690000       0.92370000
