data_OTISAN
_symmetry_space_group_name_H-M    'P1'
_symmetry_Int_Tables_number       1
loop_
_symmetry_equiv_pos_site_id
_symmetry_equiv_pos_as_xyz
1 x,y,z
_cell_length_a                   13.9194
_cell_length_b                   13.6814
_cell_length_c                   17.1014
_cell_angle_alpha                90.0
_cell_angle_beta                 90.0
_cell_angle_gamma                90.0
loop_
_atom_site_label
_atom_site_type_symbol
_atom_site_fract_x
_atom_site_fract_y
_atom_site_fract_z
     1  S          0.24679200       0.23565300       0.25038217
     2  S          0.25320800       0.76434700       0.75038217
     3  S          0.75320800       0.73565300       0.24961783
     4  S          0.74679200       0.26434700       0.74961783
     5  S          0.75320800       0.76434700       0.74961783
     6  S          0.74679200       0.23565300       0.24961783
     7  S          0.24679200       0.26434700       0.75038217
     8  S          0.25320800       0.73565300       0.25038217
     9  F          0.24249700       0.11488700       0.24027500
    10  F          0.25750300       0.88511300       0.74027500
    11  F          0.75750300       0.61488700       0.25972500
    12  F          0.74249700       0.38511300       0.75972500
    13  F          0.75750300       0.88511300       0.75972500
    14  F          0.74249700       0.11488700       0.25972500
    15  F          0.24249700       0.38511300       0.74027500
    16  F          0.25750300       0.61488700       0.24027500
    17  F          0.30730600       0.23832700       0.17485500
    18  F          0.19269400       0.76167300       0.67485500
    19  F          0.69269400       0.73832700       0.32514500
    20  F          0.80730600       0.26167300       0.82514500
    21  F          0.69269400       0.76167300       0.82514500
    22  F          0.80730600       0.23832700       0.32514500
    23  F          0.30730600       0.26167300       0.67485500
    24  F          0.19269400       0.73832700       0.17485500
    25  F          0.32876600       0.21916700       0.30939500
    26  F          0.17123400       0.78083300       0.80939500
    27  F          0.67123400       0.71916700       0.19060500
    28  F          0.82876600       0.28083300       0.69060500
    29  F          0.67123400       0.78083300       0.69060500
    30  F          0.82876600       0.21916700       0.19060500
    31  F          0.32876600       0.28083300       0.80939500
    32  F          0.17123400       0.71916700       0.30939500
    33  F          0.26759800       0.35522700       0.25913600
    34  F          0.23240200       0.64477300       0.75913600
    35  F          0.73240200       0.85522700       0.24086400
    36  F          0.76759800       0.14477300       0.74086400
    37  F          0.73240200       0.64477300       0.74086400
    38  F          0.76759800       0.35522700       0.24086400
    39  F          0.26759800       0.14477300       0.75913600
    40  F          0.23240200       0.85522700       0.25913600
    41  S          0.00763200       0.25835300       0.00262018
    42  S          0.49236800       0.74164700       0.50262018
    43  S         -0.00763200       0.75835300       0.49737982
    44  S          0.50763200       0.24164700      -0.00262018
    45  S         -0.00763200       0.74164700      -0.00262018
    46  S          0.50763200       0.25835300       0.49737982
    47  S          0.00763200       0.24164700       0.50262018
    48  S          0.49236800       0.75835300       0.00262018
    49  F         -0.00253700       0.13743700       0.00832600
    50  F          0.50253700       0.86256300       0.50832600
    51  F          0.00253700       0.63743700       0.49167400
    52  F          0.49746300       0.36256300       0.99167400
    53  F          0.00253700       0.86256300       0.99167400
    54  F          0.49746300       0.13743700       0.49167400
    55  F         -0.00253700       0.36256300       0.50832600
    56  F          0.50253700       0.63743700       0.00832600
    57  F          0.94649400       0.25309700       0.92739500
    58  F          0.55350600       0.74690300       0.42739500
    59  F          0.05350600       0.75309700       0.57260500
    60  F          0.44649400       0.24690300       0.07260500
    61  F          0.05350600       0.74690300       0.07260500
    62  F          0.44649400       0.25309700       0.57260500
    63  F          0.94649400       0.24690300       0.42739500
    64  F          0.55350600       0.75309700       0.92739500
    65  F          0.92569400       0.26469700       0.06276500
    66  F          0.57430600       0.73530300       0.56276500
    67  F          0.07430600       0.76469700       0.43723500
    68  F          0.42569400       0.23530300       0.93723500
    69  F          0.07430600       0.73530300       0.93723500
    70  F          0.42569400       0.26469700       0.43723500
    71  F          0.92569400       0.23530300       0.56276500
    72  F          0.57430600       0.76469700       0.06276500
    73  F          0.00103700       0.37972700      -0.00431500
    74  F          0.49896300       0.62027300       0.49568500
    75  F         -0.00103700       0.87972700       0.50431500
    76  F          0.50103700       0.12027300       0.00431500
    77  F         -0.00103700       0.62027300       0.00431500
    78  F          0.50103700       0.37972700       0.50431500
    79  F          0.00103700       0.12027300       0.49568500
    80  F          0.49896300       0.87972700      -0.00431500
    81  N          0.21924800       0.08480800       0.45498600
    82  N          0.28075200       0.91519200       0.95498600
    83  N          0.78075200       0.58480800       0.04501400
    84  N          0.71924800       0.41519200       0.54501400
    85  N          0.78075200       0.91519200       0.54501400
    86  N          0.71924800       0.08480800       0.04501400
    87  N          0.21924800       0.41519200       0.95498600
    88  N          0.28075200       0.58480800       0.45498600
    89  C          0.23908100       0.00043900       0.41871800
    90  C          0.26091900      -0.00043900       0.91871800
    91  C          0.76091900       0.50043900       0.08128200
    92  C          0.73908100       0.49956100       0.58128200
    93  C          0.76091900      -0.00043900       0.58128200
    94  C          0.73908100       0.00043900       0.08128200
    95  C          0.23908100       0.49956100       0.91871800
    96  C          0.26091900       0.50043900       0.41871800
    97  H          0.23010000      -0.00470000       0.36380000
    98  H          0.26990000       0.00470000       0.86380000
    99  H          0.76990000       0.49530000       0.13620000
   100  H          0.73010000       0.50470000       0.63620000
   101  H          0.76990000       0.00470000       0.63620000
   102  H          0.73010000      -0.00470000       0.13620000
   103  H          0.23010000       0.50470000       0.86380000
   104  H          0.26990000       0.49530000       0.36380000
   105  C          0.27243100       0.92082100       0.46034800
   106  C          0.22756900       0.07917900       0.96034800
   107  C          0.72756900       0.42082100       0.03965200
   108  C          0.77243100       0.57917900       0.53965200
   109  C          0.72756900       0.07917900       0.53965200
   110  C          0.77243100       0.92082100       0.03965200
   111  C          0.27243100       0.57917900       0.96034800
   112  C          0.22756900       0.42082100       0.46034800
   113  H          0.28630000       0.86100000       0.43440000
   114  H          0.21370000       0.13900000       0.93440000
   115  H          0.71370000       0.36100000       0.06560000
   116  H          0.78630000       0.63900000       0.56560000
   117  H          0.71370000       0.13900000       0.56560000
   118  H          0.78630000       0.86100000       0.06560000
   119  H          0.28630000       0.63900000       0.93440000
   120  H          0.21370000       0.36100000       0.43440000
   121  C          0.28523100       0.92931900       0.53986800
   122  C          0.21476900       0.07068100       0.03986800
   123  C          0.71476900       0.42931900       0.96013200
   124  C          0.78523100       0.57068100       0.46013200
   125  C          0.71476900       0.07068100       0.46013200
   126  C          0.78523100       0.92931900       0.96013200
   127  C          0.28523100       0.57068100       0.03986800
   128  C          0.21476900       0.42931900       0.53986800
   129  H          0.30820000       0.87530000       0.56930000
   130  H          0.19180000       0.12470000       0.06930000
   131  H          0.69180000       0.37530000       0.93070000
   132  H          0.80820000       0.62470000       0.43070000
   133  H          0.69180000       0.12470000       0.43070000
   134  H          0.80820000       0.87530000       0.93070000
   135  H          0.30820000       0.62470000       0.06930000
   136  H          0.19180000       0.37530000       0.56930000
   137  C          0.26451100       0.01696110       0.57677800
   138  C          0.23548900       0.98303890       0.07677800
   139  C          0.73548900       0.51696110       0.92322200
   140  C          0.76451100       0.48303890       0.42322200
   141  C          0.73548900       0.98303890       0.42322200
   142  C          0.76451100       0.01696110       0.92322200
   143  C          0.26451100       0.48303890       0.07677800
   144  C          0.23548900       0.51696110       0.57677800
   145  H          0.27280000       0.02390000       0.63160000
   146  H          0.22720000       0.97610000       0.13160000
   147  H          0.72720000       0.52390000       0.86840000
   148  H          0.77280000       0.47610000       0.36840000
   149  H          0.72720000       0.97610000       0.36840000
   150  H          0.77280000       0.02390000       0.86840000
   151  H          0.27280000       0.47610000       0.13160000
   152  H          0.22720000       0.52390000       0.63160000
   153  C          0.23155100       0.09386100       0.53198700
   154  C          0.26844900       0.90613900       0.03198700
   155  C          0.76844900       0.59386100       0.96801300
   156  C          0.73155100       0.40613900       0.46801300
   157  C          0.76844900       0.90613900       0.46801300
   158  C          0.73155100       0.09386100       0.96801300
   159  C          0.23155100       0.40613900       0.03198700
   160  C          0.26844900       0.59386100       0.53198700
   161  H          0.21740000       0.15450000       0.55650000
   162  H          0.28260000       0.84550000       0.05650000
   163  H          0.78260000       0.65450000       0.94350000
   164  H          0.71740000       0.34550000       0.44350000
   165  H          0.78260000       0.84550000       0.44350000
   166  H          0.71740000       0.15450000       0.94350000
   167  H          0.21740000       0.34550000       0.05650000
   168  H          0.28260000       0.65450000       0.55650000
   169  H          0.18941300       0.14411400       0.42341100
   170  H          0.31058700       0.85588600       0.92341100
   171  H          0.81058700       0.64411400       0.07658900
   172  H          0.68941300       0.35588600       0.57658900
   173  H          0.81058700       0.85588600       0.57658900
   174  H          0.68941300       0.14411400       0.07658900
   175  H          0.18941300       0.35588600       0.92341100
   176  H          0.31058700       0.64411400       0.42341100
   177  N          0.04396800       0.40480800       0.21143600
   178  N          0.45603200       0.59519200       0.71143600
   179  N          0.95603200       0.90480800       0.28856400
   180  N          0.54396800       0.09519200       0.78856400
   181  N          0.95603200       0.59519200       0.78856400
   182  N          0.54396800       0.40480800       0.28856400
   183  N          0.04396800       0.09519200       0.71143600
   184  N          0.45603200       0.90480800       0.21143600
   185  C          0.04190100       0.40184900       0.28925700
   186  C          0.45809900       0.59815100       0.78925700
   187  C          0.95809900       0.90184900       0.21074300
   188  C          0.54190100       0.09815100       0.71074300
   189  C          0.95809900       0.59815100       0.71074300
   190  C          0.54190100       0.40184900       0.21074300
   191  C          0.04190100       0.09815100       0.78925700
   192  C          0.45809900       0.90184900       0.28925700
   193  H          0.06180000       0.34400000       0.31540000
   194  H          0.43820000       0.65600000       0.81540000
   195  H          0.93820000       0.84400000       0.18460000
   196  H          0.56180000       0.15600000       0.68460000
   197  H          0.93820000       0.65600000       0.68460000
   198  H          0.56180000       0.34400000       0.18460000
   199  H          0.06180000       0.15600000       0.81540000
   200  H          0.43820000       0.84400000       0.31540000
   201  C          0.01155100       0.48085100       0.33273800
   202  C          0.48844900       0.51914900       0.83273800
   203  C          0.98844900       0.98085100       0.16726200
   204  C          0.51155100       0.01914900       0.66726200
   205  C          0.98844900       0.51914900       0.66726200
   206  C          0.51155100       0.48085100       0.16726200
   207  C          0.01155100       0.01914900       0.83273800
   208  C          0.48844900       0.98085100       0.33273800
   209  H          0.01040000       0.47790000       0.38820000
   210  H          0.48960000       0.52210000       0.88820000
   211  H          0.98960000       0.97790000       0.11180000
   212  H          0.51040000       0.02210000       0.61180000
   213  H          0.98960000       0.52210000       0.61180000
   214  H          0.51040000       0.47790000       0.11180000
   215  H          0.01040000       0.02210000       0.88820000
   216  H          0.48960000       0.97790000       0.38820000
   217  C          0.98271900       0.56470100       0.29388800
   218  C          0.51728100       0.43529900       0.79388800
   219  C          0.01728100       0.06470100       0.20611200
   220  C          0.48271900       0.93529900       0.70611200
   221  C          0.01728100       0.43529900       0.70611200
   222  C          0.48271900       0.56470100       0.20611200
   223  C          0.98271900       0.93529900       0.79388800
   224  C          0.51728100       0.06470100       0.29388800
   225  H          0.96170000       0.62020000       0.32250000
   226  H          0.53830000       0.37980000       0.82250000
   227  H          0.03830000       0.12020000       0.17750000
   228  H          0.46170000       0.87980000       0.67750000
   229  H          0.03830000       0.37980000       0.67750000
   230  H          0.46170000       0.62020000       0.17750000
   231  H          0.96170000       0.87980000       0.82250000
   232  H          0.53830000       0.12020000       0.32250000
   233  C          0.98475900       0.56685100       0.21336800
   234  C          0.51524100       0.43314900       0.71336800
   235  C          0.01524100       0.06685100       0.28663200
   236  C          0.48475900       0.93314900       0.78663200
   237  C          0.01524100       0.43314900       0.78663200
   238  C          0.48475900       0.56685100       0.28663200
   239  C          0.98475900       0.93314900       0.71336800
   240  C          0.51524100       0.06685100       0.21336800
   241  H          0.96470000       0.62360000       0.18590000
   242  H          0.53530000       0.37640000       0.68590000
   243  H          0.03530000       0.12360000       0.31410000
   244  H          0.46470000       0.87640000       0.81410000
   245  H          0.03530000       0.37640000       0.81410000
   246  H          0.46470000       0.62360000       0.31410000
   247  H          0.96470000       0.87640000       0.68590000
   248  H          0.53530000       0.12360000       0.18590000
   249  C          0.01633100       0.48561100       0.17307800
   250  C          0.48366900       0.51438900       0.67307800
   251  C          0.98366900       0.98561100       0.32692200
   252  C          0.51633100       0.01438900       0.82692200
   253  C          0.98366900       0.51438900       0.82692200
   254  C          0.51633100       0.48561100       0.32692200
   255  C          0.01633100       0.01438900       0.67307800
   256  C          0.48366900       0.98561100       0.17307800
   257  H          0.01850000       0.48690000       0.11760000
   258  H          0.48150000       0.51310000       0.61760000
   259  H          0.98150000       0.98690000       0.38240000
   260  H          0.51850000       0.01310000       0.88240000
   261  H          0.98150000       0.51310000       0.88240000
   262  H          0.51850000       0.48690000       0.38240000
   263  H          0.01850000       0.01310000       0.61760000
   264  H          0.48150000       0.98690000       0.11760000
   265  H          0.07031300       0.34211400       0.18081100
   266  H          0.42968700       0.65788600       0.68081100
   267  H          0.92968700       0.84211400       0.31918900
   268  H          0.57031300       0.15788600       0.81918900
   269  H          0.92968700       0.65788600       0.81918900
   270  H          0.57031300       0.34211400       0.31918900
   271  H          0.07031300       0.15788600       0.68081100
   272  H          0.42968700       0.84211400       0.18081100
   273  F          0.14882600       0.22248500       0.38506400
   274  F          0.35117400       0.77751500       0.88506400
   275  F          0.85117400       0.72248500       0.11493600
   276  F          0.64882600       0.27751500       0.61493600
   277  F          0.85117400       0.77751500       0.61493600
   278  F          0.64882600       0.22248500       0.11493600
   279  F          0.14882600       0.27751500       0.88506400
   280  F          0.35117400       0.72248500       0.38506400
   281  F          0.10643600       0.26608500       0.13783400
   282  F          0.39356400       0.73391500       0.63783400
   283  F          0.89356400       0.76608500       0.36216600
   284  F          0.60643600       0.23391500       0.86216600
   285  F          0.89356400       0.73391500       0.86216600
   286  F          0.60643600       0.26608500       0.36216600
   287  F          0.10643600       0.23391500       0.63783400
   288  F          0.39356400       0.76608500       0.13783400
