data_OTISOB
_symmetry_space_group_name_H-M    'P1'
_symmetry_Int_Tables_number       1
loop_
_symmetry_equiv_pos_site_id
_symmetry_equiv_pos_as_xyz
1 x,y,z
_cell_length_a                   8.6056
_cell_length_b                   20.37115
_cell_length_c                   16.50012
_cell_angle_alpha                90.0
_cell_angle_beta                 90.4159
_cell_angle_gamma                90.0
loop_
_atom_site_label
_atom_site_type_symbol
_atom_site_fract_x
_atom_site_fract_y
_atom_site_fract_z
     1  N          0.37443190       0.75868700       0.82951900
     2  N          0.62556810       0.25868700       0.67048100
     3  N          0.62556810       0.24131300       0.17048100
     4  N          0.37443190       0.74131300       0.32951900
     5  H          0.44200000       0.79100000       0.82630000
     6  H          0.55800000       0.29100000       0.67370000
     7  H          0.55800000       0.20900000       0.17370000
     8  H          0.44200000       0.70900000       0.32630000
     9  C          0.41662000       0.70143900       0.86242110
    10  C          0.58338000       0.20143900       0.63757890
    11  C          0.58338000       0.29856100       0.13757890
    12  C          0.41662000       0.79856100       0.36242110
    13  H          0.51940000       0.69650000       0.88290000
    14  H          0.48060000       0.19650000       0.61710000
    15  H          0.48060000       0.30350000       0.11710000
    16  H          0.51940000       0.80350000       0.38290000
    17  C          0.31652000       0.64998900       0.86741100
    18  C          0.68348000       0.14998900       0.63258900
    19  C          0.68348000       0.35001100       0.13258900
    20  C          0.31652000       0.85001100       0.36741100
    21  H          0.34990000       0.60980000       0.89090000
    22  H          0.65010000       0.10980000       0.60910000
    23  H          0.65010000       0.39020000       0.10910000
    24  H          0.34990000       0.89020000       0.39090000
    25  C          0.16212000       0.65625800       0.83763100
    26  C          0.83788000       0.15625800       0.66236900
    27  C          0.83788000       0.34374200       0.16236900
    28  C          0.16212000       0.84374200       0.33763100
    29  C          0.12232000       0.71812900       0.80446110
    30  C          0.87768000       0.21812900       0.69553890
    31  C          0.87768000       0.28187100       0.19553890
    32  C          0.12232000       0.78187100       0.30446110
    33  H          0.02010000       0.72550000       0.78430000
    34  H          0.97990000       0.22550000       0.71570000
    35  H          0.97990000       0.27450000       0.21570000
    36  H          0.02010000       0.77450000       0.28430000
    37  C          0.22932000       0.76696900       0.80139120
    38  C          0.77068000       0.26696900       0.69860880
    39  C          0.77068000       0.23303100       0.19860880
    40  C          0.22932000       0.73303100       0.30139120
    41  H          0.20060000       0.80810000       0.77870000
    42  H          0.79940000       0.30810000       0.72130000
    43  H          0.79940000       0.19190000       0.22130000
    44  H          0.20060000       0.69190000       0.27870000
    45  N          0.06084170       0.60622700       0.84044900
    46  N          0.93915830       0.10622700       0.65955100
    47  N          0.93915830       0.39377300       0.15955100
    48  N          0.06084170       0.89377300       0.34044900
    49  C          0.10182000       0.54377900       0.87861120
    50  C          0.89818000       0.04377900       0.62138880
    51  C          0.89818000       0.45622100       0.12138880
    52  C          0.10182000       0.95622100       0.37861120
    53  H          0.20200000       0.52860000       0.85790000
    54  H          0.79800000       0.02860000       0.64210000
    55  H          0.79800000       0.47140000       0.14210000
    56  H          0.20200000       0.97140000       0.35790000
    57  H          0.02150000       0.51110000       0.86610000
    58  H          0.97850000       0.01110000       0.63390000
    59  H          0.97850000       0.48890000       0.13390000
    60  H          0.02150000       0.98890000       0.36610000
    61  H          0.10930000       0.54970000       0.93750000
    62  H          0.89070000       0.04970000       0.56250000
    63  H          0.89070000       0.45030000       0.06250000
    64  H          0.10930000       0.95030000       0.43750000
    65  C          0.89908000       0.61424100       0.81580130
    66  C          0.10092000       0.11424100       0.68419870
    67  C          0.10092000       0.38575900       0.18419870
    68  C          0.89908000       0.88575900       0.31580130
    69  H          0.84150000       0.63580000       0.85940000
    70  H          0.15850000       0.13580000       0.64060000
    71  H          0.15850000       0.36420000       0.14060000
    72  H          0.84150000       0.86420000       0.35940000
    73  H          0.85340000       0.57110000       0.80470000
    74  H          0.14660000       0.07110000       0.69530000
    75  H          0.14660000       0.42890000       0.19530000
    76  H          0.85340000       0.92890000       0.30470000
    77  H          0.89370000       0.64130000       0.76670000
    78  H          0.10630000       0.14130000       0.73330000
    79  H          0.10630000       0.35870000       0.23330000
    80  H          0.89370000       0.85870000       0.26670000
    81  N          0.88085820       0.02262700       0.84072900
    82  N          0.11914180       0.52262700       0.65927100
    83  N          0.11914180       0.97737300       0.15927100
    84  N          0.88085820       0.47737300       0.34072900
    85  H          0.94310000       0.98860000       0.83610000
    86  H          0.05690000       0.48860000       0.66390000
    87  H          0.05690000       0.01140000       0.16390000
    88  H          0.94310000       0.51140000       0.33610000
    89  C          0.73188000       0.01787900       0.81772110
    90  C          0.26812000       0.51787900       0.68227890
    91  C          0.26812000       0.98212100       0.18227890
    92  C          0.73188000       0.48212100       0.31772110
    93  H          0.69470000       0.97730000       0.79680000
    94  H          0.30530000       0.47730000       0.70320000
    95  H          0.30530000       0.02270000       0.20320000
    96  H          0.69470000       0.52270000       0.29680000
    97  C          0.63238000       0.06926800       0.82349110
    98  C          0.36762000       0.56926800       0.67650890
    99  C          0.36762000       0.93073200       0.17650890
   100  C          0.63238000       0.43073200       0.32349110
   101  H          0.52740000       0.06440000       0.80650000
   102  H          0.47260000       0.56440000       0.69350000
   103  H          0.47260000       0.93560000       0.19350000
   104  H          0.52740000       0.43560000       0.30650000
   105  C          0.68458000       0.13010800       0.85480100
   106  C          0.31542000       0.63010800       0.64519900
   107  C          0.31542000       0.86989200       0.14519900
   108  C          0.68458000       0.36989200       0.35480100
   109  C          0.84288000       0.13316900       0.87843100
   110  C          0.15712000       0.63316900       0.62156900
   111  C          0.15712000       0.86683100       0.12156900
   112  C          0.84288000       0.36683100       0.37843100
   113  H          0.88450000       0.17290000       0.89960000
   114  H          0.11550000       0.67290000       0.60040000
   115  H          0.11550000       0.82710000       0.10040000
   116  H          0.88450000       0.32710000       0.39960000
   117  C          0.93538000       0.07954900       0.87093100
   118  C          0.06462000       0.57954900       0.62906900
   119  C          0.06462000       0.92045100       0.12906900
   120  C          0.93538000       0.42045100       0.37093100
   121  H          0.04130000       0.08230000       0.88740000
   122  H          0.95870000       0.58230000       0.61260000
   123  H          0.95870000       0.91770000       0.11260000
   124  H          0.04130000       0.41770000       0.38740000
   125  N          0.58932820       0.18186700       0.86082900
   126  N          0.41067180       0.68186700       0.63917100
   127  N          0.41067180       0.81813300       0.13917100
   128  N          0.58932820       0.31813300       0.36082900
   129  C          0.42568000       0.17672110       0.83790140
   130  C          0.57432000       0.67672110       0.66209860
   131  C          0.57432000       0.82327890       0.16209860
   132  C          0.42568000       0.32327890       0.33790140
   133  H          0.37210000       0.14780000       0.87610000
   134  H          0.62790000       0.64780000       0.62390000
   135  H          0.62790000       0.85220000       0.12390000
   136  H          0.37210000       0.35220000       0.37610000
   137  H          0.41700000       0.15850000       0.78310000
   138  H          0.58300000       0.65850000       0.71690000
   139  H          0.58300000       0.84150000       0.21690000
   140  H          0.41700000       0.34150000       0.28310000
   141  H          0.37790000       0.22040000       0.83910000
   142  H          0.62210000       0.72040000       0.66090000
   143  H          0.62210000       0.77960000       0.16090000
   144  H          0.37790000       0.27960000       0.33910000
   145  C          0.63947000       0.24275900       0.89940130
   146  C          0.36053000       0.74275900       0.60059870
   147  C          0.36053000       0.75724100       0.10059870
   148  C          0.63947000       0.25724100       0.39940130
   149  H          0.73400000       0.25870000       0.87310000
   150  H          0.26600000       0.75870000       0.62690000
   151  H          0.26600000       0.74130000       0.12690000
   152  H          0.73400000       0.24130000       0.37310000
   153  H          0.66110000       0.23470000       0.95690000
   154  H          0.33890000       0.73470000       0.54310000
   155  H          0.33890000       0.76530000       0.04310000
   156  H          0.66110000       0.26530000       0.45690000
   157  H          0.55730000       0.27580000       0.89410000
   158  H          0.44270000       0.77580000       0.60590000
   159  H          0.44270000       0.72420000       0.10590000
   160  H          0.55730000       0.22420000       0.39410000
   161  S          0.29225500       0.93553200       0.89488300
   162  S          0.70774500       0.43553200       0.60511700
   163  S          0.70774500       0.06446800       0.10511700
   164  S          0.29225500       0.56446800       0.39488300
   165  F          0.28027140       0.01052600       0.85256800
   166  F          0.71972860       0.51052600       0.64743200
   167  F          0.71972860       0.98947400       0.14743200
   168  F          0.28027140       0.48947400       0.35256800
   169  F          0.30197150       0.86726600       0.94899700
   170  F          0.69802850       0.36726600       0.55100300
   171  F          0.69802850       0.13273400       0.05100300
   172  F          0.30197150       0.63273400       0.44899700
   173  F          0.16615130       0.95935500       0.95427600
   174  F          0.83384870       0.45935500       0.54572400
   175  F          0.83384870       0.04064500       0.04572400
   176  F          0.16615130       0.54064500       0.45427600
   177  F          0.43705140       0.96000600       0.94066800
   178  F          0.56294860       0.46000600       0.55933200
   179  F          0.56294860       0.03999400       0.05933200
   180  F          0.43705140       0.53999400       0.44066800
   181  S          0.78918500       0.84253200       0.90429300
   182  S          0.21081500       0.34253200       0.59570700
   183  S          0.21081500       0.15746800       0.09570700
   184  S          0.78918500       0.65746800       0.40429300
   185  F          0.79901150       0.90638600       0.96553800
   186  F          0.20098850       0.40638600       0.53446200
   187  F          0.20098850       0.09361400       0.03446200
   188  F          0.79901150       0.59361400       0.46553800
   189  F          0.77679140       0.77068600       0.85534900
   190  F          0.22320860       0.27068600       0.64465100
   191  F          0.22320860       0.22931400       0.14465100
   192  F          0.77679140       0.72931400       0.35534900
   193  F          0.65824130       0.81611600       0.95906700
   194  F          0.34175870       0.31611600       0.54093300
   195  F          0.34175870       0.18388400       0.04093300
   196  F          0.65824130       0.68388400       0.45906700
   197  F          0.93089140       0.81402600       0.94993800
   198  F          0.06910860       0.31402600       0.55006200
   199  F          0.06910860       0.18597400       0.05006200
   200  F          0.93089140       0.68597400       0.44993800
   201  S          0.39679500       0.94446200       0.61917300
   202  S          0.60320500       0.44446200       0.88082700
   203  S          0.60320500       0.05553800       0.38082700
   204  S          0.39679500       0.55553800       0.11917300
   205  F          0.37086190       0.89000600       0.54776800
   206  F          0.62913810       0.39000600       0.95223200
   207  F          0.62913810       0.10999400       0.45223200
   208  F          0.37086190       0.60999400       0.04776800
   209  F          0.42696190       0.00852800       0.67964900
   210  F          0.57303810       0.50852800       0.82035100
   211  F          0.57303810       0.99147200       0.32035100
   212  F          0.42696190       0.49147200       0.17964900
   213  F          0.54308140       0.96620700       0.57400800
   214  F          0.45691860       0.46620700       0.92599200
   215  F          0.45691860       0.03379300       0.42599200
   216  F          0.54308140       0.53379300       0.07400800
   217  F          0.27650130       0.98746600       0.57426700
   218  F          0.72349870       0.48746600       0.92573300
   219  F          0.72349870       0.01253400       0.42573300
   220  F          0.27650130       0.51253400       0.07426700
   221  S          0.88535500       0.84306200       0.59392300
   222  S          0.11464500       0.34306200       0.90607700
   223  S          0.11464500       0.15693800       0.40607700
   224  S          0.88535500       0.65693800       0.09392300
   225  F          0.91231160       0.77019700       0.63858900
   226  F          0.08768840       0.27019700       0.86141100
   227  F          0.08768840       0.22980300       0.36141100
   228  F          0.91231160       0.72980300       0.13858900
   229  F          0.86123150       0.90851600       0.53629800
   230  F          0.13876850       0.40851600       0.96370200
   231  F          0.13876850       0.09148400       0.46370200
   232  F          0.86123150       0.59148400       0.03629800
   233  F          0.02690140       0.82636600       0.54086800
   234  F          0.97309860       0.32636600       0.95913200
   235  F          0.97309860       0.17363400       0.45913200
   236  F          0.02690140       0.67363400       0.04086800
   237  F          0.75716140       0.80973600       0.54277800
   238  F          0.24283860       0.30973600       0.95722200
   239  F          0.24283860       0.19026400       0.45722200
   240  F          0.75716140       0.69026400       0.04277800
   241  F          0.02567120       0.91064500       0.81588700
   242  F          0.97432880       0.41064500       0.68411300
   243  F          0.97432880       0.08935500       0.18411300
   244  F          0.02567120       0.58935500       0.31588700
   245  F          0.11654140       0.90164600       0.68616700
   246  F          0.88345860       0.40164600       0.81383300
   247  F          0.88345860       0.09835400       0.31383300
   248  F          0.11654140       0.59835400       0.18616700
   249  H          0.06930000       0.90591500       0.74420000
   250  H          0.93070000       0.40591500       0.75580000
   251  H          0.93070000       0.09408500       0.25580000
   252  H          0.06930000       0.59408500       0.24420000
   253  F          0.53571120       0.86811500       0.81458600
   254  F          0.46428880       0.36811500       0.68541400
   255  F          0.46428880       0.13188500       0.18541400
   256  F          0.53571120       0.63188500       0.31458600
   257  F          0.62321150       0.86770800       0.68421800
   258  F          0.37678850       0.36770800       0.81578200
   259  F          0.37678850       0.13229200       0.31578200
   260  F          0.62321150       0.63229200       0.18421800
   261  H          0.59030000       0.87141400       0.74221800
   262  H          0.40970000       0.37141400       0.75778200
   263  H          0.40970000       0.12858600       0.25778200
   264  H          0.59030000       0.62858600       0.24221800
