data_OTUKUM
_symmetry_space_group_name_H-M    'P1'
_symmetry_Int_Tables_number       1
loop_
_symmetry_equiv_pos_site_id
_symmetry_equiv_pos_as_xyz
1 x,y,z
_cell_length_a                   4.68863
_cell_length_b                   10.50837
_cell_length_c                   17.087712
_cell_angle_alpha                84.7836
_cell_angle_beta                 85.2006
_cell_angle_gamma                79.1586
loop_
_atom_site_label
_atom_site_type_symbol
_atom_site_fract_x
_atom_site_fract_y
_atom_site_fract_z
     1  F          0.32232000       0.29790900       0.94344600
     2  F          0.67768000       0.70209100       0.05655400
     3  F          0.67332000       0.25085900       0.05769600
     4  F          0.32668000       0.74914100       0.94230400
     5  O          0.93012000       0.65488110       0.87052700
     6  O          0.06988000       0.34511890       0.12947300
     7  H          0.82559300       0.66244000       0.83216200
     8  H          0.17440700       0.33756000       0.16783800
     9  O          0.15443000       0.47272120       0.81658700
    10  O          0.84557000       0.52727880       0.18341300
    11  C          0.59753000       0.37513160       0.02931100
    12  C          0.40247000       0.62486840       0.97068900
    13  C          0.41373000       0.39978150       0.96886100
    14  C          0.58627000       0.60021850       0.03113900
    15  C          0.31223000       0.52515160       0.93655900
    16  C          0.68777000       0.47484840       0.06344100
    17  C          0.12193000       0.54827160       0.86784100
    18  C          0.87807000       0.45172840       0.13215900
    19  O          0.30478000       0.86701110       0.28140700
    20  O          0.69522000       0.13298890       0.71859300
    21  N          0.59843000       0.69474140       0.75529800
    22  N          0.40157000       0.30525860       0.24470200
    23  N          0.05763000       0.79234130       0.56774800
    24  N          0.94237000       0.20765870       0.43225200
    25  N          0.05293000       0.70633130       0.52097800
    26  N          0.94707000       0.29366870       0.47902200
    27  C          0.38704000       0.79963160       0.75313100
    28  C          0.61296000       0.20036840       0.24686900
    29  H          0.35940400       0.85436300       0.79544900
    30  H          0.64059600       0.14563700       0.20455100
    31  C          0.20744000       0.83124160       0.69168100
    32  C          0.79256000       0.16875840       0.30831900
    33  H          0.05914600       0.90655800       0.69164400
    34  H          0.94085400       0.09344200       0.30835600
    35  C          0.24663000       0.75122160       0.62986100
    36  C          0.75337000       0.24877840       0.37013900
    37  C          0.46533000       0.64130160       0.63200100
    38  C          0.53467000       0.35869840       0.36799900
    39  H          0.49663700       0.58460800       0.59062700
    40  H          0.50336300       0.41539200       0.40937300
    41  C          0.63534000       0.61680170       0.69563100
    42  C          0.36466000       0.38319830       0.30436900
    43  H          0.78443300       0.54183500       0.69741700
    44  H          0.21556700       0.45816500       0.30258300
    45  C          0.86307000       0.74998150       0.45982100
    46  C          0.13693000       0.25001850       0.54017900
    47  C          0.71466000       0.87816160       0.44860100
    48  C          0.28534000       0.12183840       0.55139900
    49  H          0.74407500       0.94178000       0.48170500
    50  H          0.25592500       0.05822000       0.51829500
    51  C          0.52606000       0.91187160       0.38951100
    52  C          0.47394000       0.08812840       0.61048900
    53  H          0.41919800      -0.00198600       0.38337400
    54  H          0.58080200       0.00198600       0.61662600
    55  C          0.49087000       0.82028160       0.33850900
    56  C          0.50913000       0.17971840       0.66149100
    57  C          0.64186000       0.69306160       0.34814100
    58  C          0.35814000       0.30693840       0.65185900
    59  H          0.61979400       0.63060900       0.31331500
    60  H          0.38020600       0.36939100       0.68668500
    61  C          0.82536000       0.65870160       0.40932100
    62  C          0.17464000       0.34129840       0.59067900
    63  H          0.92651600       0.57170900       0.41679700
    64  H          0.07348400       0.42829100       0.58320300
    65  C          0.27276000       0.78167160       0.22222100
    66  C          0.72724000       0.21832840       0.77777900
    67  H          0.18653900       0.70726600       0.24663700
    68  H          0.81346100       0.29273400       0.75336300
    69  H          0.46471700       0.74765600       0.19592900
    70  H          0.53528300       0.25234400       0.80407100
    71  C          0.07486000       0.86109180       0.16330110
    72  C          0.92514000       0.13890820       0.83669890
    73  H          0.88672200       0.89587600       0.19126000
    74  H          0.11327800       0.10412400       0.80874000
    75  H          0.03594800       0.80321300       0.12442500
    76  H          0.96405200       0.19678700       0.87557500
    77  C          0.19736000       0.97379180       0.11943120
    78  C          0.80264000       0.02620820       0.88056880
    79  H          0.06230400       0.01793800       0.08059400
    80  H          0.93769600       0.98206200       0.91940600
    81  H          0.38596500       0.94070200       0.09247700
    82  H          0.61403500       0.05929800       0.90752300
    83  H          0.22262800       0.03530000       0.15697900
    84  H          0.77737200       0.96470000       0.84302100
