data_OVIBAX
_symmetry_space_group_name_H-M    'P1'
_symmetry_Int_Tables_number       1
loop_
_symmetry_equiv_pos_site_id
_symmetry_equiv_pos_as_xyz
1 x,y,z
_cell_length_a                   8.61057
_cell_length_b                   5.02293
_cell_length_c                   30.2535
_cell_angle_alpha                90.0
_cell_angle_beta                 98.7701
_cell_angle_gamma                90.0
loop_
_atom_site_label
_atom_site_type_symbol
_atom_site_fract_x
_atom_site_fract_y
_atom_site_fract_z
     1  O          0.41794140       0.52163000       0.17724400
     2  O          0.58205860       0.02163000       0.32275600
     3  O          0.58205860       0.47837000       0.82275600
     4  O          0.41794140      -0.02163000       0.67724400
     5  H          0.42040000       0.44230000       0.19770000
     6  H          0.57960000       0.94230000       0.30230000
     7  H          0.57960000       0.55770000       0.80230000
     8  H          0.42040000       0.05770000       0.69770000
     9  O          0.56348160       0.15683000       0.22937400
    10  O          0.43651840       0.65683000       0.27062600
    11  O          0.43651840       0.84317000       0.77062600
    12  O          0.56348160       0.34317000       0.72937400
    13  O          0.78369150       0.84768000       0.04585400
    14  O          0.21630850       0.34768000       0.45414600
    15  O          0.21630850       0.15232000       0.95414600
    16  O          0.78369150       0.65232000       0.54585400
    17  O          0.67108150       0.18123000       0.00342400
    18  O          0.32891850       0.68123000       0.49657600
    19  O          0.32891850       0.81877000      -0.00342400
    20  O          0.67108150       0.31877000       0.50342400
    21  H          0.72530000       0.12380000       0.98560000
    22  H          0.27470000       0.62380000       0.51440000
    23  H          0.27470000       0.87620000       0.01440000
    24  H          0.72530000       0.37620000       0.48560000
    25  O          0.70604160       0.85807000       0.20392400
    26  O          0.29395840       0.35807000       0.29607600
    27  O          0.29395840       0.14193000       0.79607600
    28  O          0.70604160       0.64193000       0.70392400
    29  N          0.62043170       0.05313000       0.19836500
    30  N          0.37956830       0.55313000       0.30163500
    31  N          0.37956830       0.94687000       0.80163500
    32  N          0.62043170       0.44687000       0.69836500
    33  C          0.70042000       0.04384000       0.04111600
    34  C          0.29958000       0.54384000       0.45888400
    35  C          0.29958000       0.95616000       0.95888400
    36  C          0.70042000       0.45616000       0.54111600
    37  C          0.65167190       0.05484000       0.11969600
    38  C          0.34832810       0.55484000       0.38030400
    39  C          0.34832810       0.94516000       0.88030400
    40  C          0.65167190       0.44516000       0.61969600
    41  H          0.71710000       0.90750000       0.12550000
    42  H          0.28290000       0.40750000       0.37450000
    43  H          0.28290000       0.09250000       0.87450000
    44  H          0.71710000       0.59250000       0.62550000
    45  C          0.52152000       0.37924000       0.06912600
    46  C          0.47848000       0.87924000       0.43087400
    47  C          0.47848000       0.62076000       0.93087400
    48  C          0.52152000       0.12076000       0.56912600
    49  H          0.49980000       0.44970000       0.04040000
    50  H          0.50020000       0.94970000       0.45960000
    51  H          0.50020000       0.55030000       0.95960000
    52  H          0.49980000       0.05030000       0.54040000
    53  C          0.62192000       0.15893000       0.07707600
    54  C          0.37808000       0.65893000       0.42292400
    55  C          0.37808000       0.84107000       0.92292400
    56  C          0.62192000       0.34107000       0.57707600
    57  C          0.45512000       0.49204000       0.10289600
    58  C          0.54488000      -0.00796000       0.39710400
    59  C          0.54488000       0.50796000       0.89710400
    60  C          0.45512000       0.00796000       0.60289600
    61  H          0.38840000       0.63740000       0.09670000
    62  H          0.61160000       0.13740000       0.40330000
    63  H          0.61160000       0.36260000       0.90330000
    64  H          0.38840000       0.86260000       0.59670000
    65  C          0.48572000       0.39274000       0.14652600
    66  C          0.51428000       0.89274000       0.35347400
    67  C          0.51428000       0.60726000       0.85347400
    68  C          0.48572000       0.10726000       0.64652600
    69  C          0.58412000       0.16963000       0.15408600
    70  C          0.41588000       0.66963000       0.34591400
    71  C          0.41588000       0.83037000       0.84591400
    72  C          0.58412000       0.33037000       0.65408600
    73  O          0.16489140       0.91718000       0.05846400
    74  O          0.83510860       0.41718000       0.44153600
    75  O          0.83510860       0.08282000       0.94153600
    76  O          0.16489140       0.58282000       0.55846400
    77  N          0.10241170       0.34033000       0.03948500
    78  N          0.89758830       0.84033000       0.46051500
    79  N          0.89758830       0.65967000       0.96051500
    80  N          0.10241170       0.15967000       0.53948500
    81  H          0.12620000       0.31870000       0.01270000
    82  H          0.87380000       0.81870000       0.48730000
    83  H          0.87380000       0.68130000       0.98730000
    84  H          0.12620000       0.18130000       0.51270000
    85  H          0.07770000       0.49870000       0.04670000
    86  H          0.92230000      -0.00130000       0.45330000
    87  H          0.92230000       0.50130000       0.95330000
    88  H          0.07770000       0.00130000       0.54670000
    89  C          0.12023190       0.14293000       0.06887600
    90  C          0.87976810       0.64293000       0.43112400
    91  C          0.87976810       0.85707000       0.93112400
    92  C          0.12023190       0.35707000       0.56887600
    93  C          0.04112000       0.27854000       0.20260600
    94  C          0.95888000       0.77854000       0.29739400
    95  C          0.95888000       0.72146000       0.79739400
    96  C          0.04112000       0.22146000       0.70260600
    97  H          0.02610000       0.30850000       0.23200000
    98  H          0.97390000       0.80850000       0.26800000
    99  H          0.97390000       0.69150000       0.76800000
   100  H          0.02610000       0.19150000       0.73200000
   101  C          0.08702190       0.19363000       0.11487600
   102  C          0.91297810       0.69363000       0.38512400
   103  C          0.91297810       0.80637000       0.88512400
   104  C          0.08702190       0.30637000       0.61487600
   105  C          0.96948000       0.44264000       0.16879600
   106  C          0.03052000       0.94264000       0.33120400
   107  C          0.03052000       0.55736000       0.83120400
   108  C          0.96948000       0.05736000       0.66879600
   109  H          0.90480000       0.58030000       0.17550000
   110  H          0.09520000       0.08030000       0.32450000
   111  H          0.09520000       0.41970000       0.82450000
   112  H          0.90480000       0.91970000       0.67550000
   113  C         -0.00662000       0.40374000       0.12511600
   114  C          0.00662000       0.90374000       0.37488400
   115  C          0.00662000       0.59626000       0.87488400
   116  C         -0.00662000       0.09626000       0.62511600
   117  H          0.94710000       0.51760000       0.10260000
   118  H          0.05290000       0.01760000       0.39740000
   119  H          0.05290000       0.48240000       0.89740000
   120  H          0.94710000      -0.01760000       0.60260000
   121  C          0.15682000       0.02644000       0.14915600
   122  C          0.84318000       0.52644000       0.35084400
   123  C          0.84318000      -0.02644000       0.85084400
   124  C          0.15682000       0.47356000       0.64915600
   125  H          0.21850000       0.88430000       0.14250000
   126  H          0.78150000       0.38430000       0.35750000
   127  H          0.78150000       0.11570000       0.85750000
   128  H          0.21850000       0.61570000       0.64250000
   129  C          0.13502000       0.07014000       0.19277600
   130  C          0.86498000       0.57014000       0.30722400
   131  C          0.86498000       0.92986000       0.80722400
   132  C          0.13502000       0.42986000       0.69277600
   133  H          0.18330000       0.95980000       0.21550000
   134  H          0.81670000       0.45980000       0.28450000
   135  H          0.81670000       0.04020000       0.78450000
   136  H          0.18330000       0.54020000       0.71550000
