data_OVUFUH
_symmetry_space_group_name_H-M    'P1'
_symmetry_Int_Tables_number       1
loop_
_symmetry_equiv_pos_site_id
_symmetry_equiv_pos_as_xyz
1 x,y,z
_cell_length_a                   10.3203
_cell_length_b                   21.1337
_cell_length_c                   7.8253
_cell_angle_alpha                90.0
_cell_angle_beta                 102.1056
_cell_angle_gamma                90.0
loop_
_atom_site_label
_atom_site_type_symbol
_atom_site_fract_x
_atom_site_fract_y
_atom_site_fract_z
     1  C          0.22212000       0.52734900       0.65273000
     2  C          0.77788000       0.02734900       0.84727000
     3  C          0.77788000       0.47265100       0.34727000
     4  C          0.22212000       0.97265100       0.15273000
     5  C          0.32243000       0.51455110       0.79654000
     6  C          0.67757000       0.01455110       0.70346000
     7  C          0.67757000       0.48544890       0.20346000
     8  C          0.32243000       0.98544890       0.29654000
     9  H          0.40220000       0.49770000       0.78030000
    10  H          0.59780000      -0.00230000       0.71970000
    11  H          0.59780000       0.50230000       0.21970000
    12  H          0.40220000       0.00230000       0.28030000
    13  C          0.30483000       0.52670130       0.96364000
    14  C          0.69517000       0.02670130       0.53636000
    15  C          0.69517000       0.47329870       0.03636000
    16  C          0.30483000       0.97329870       0.46364000
    17  H          0.37310000       0.51850000       0.05920000
    18  H          0.62690000       0.01850000       0.44080000
    19  H          0.62690000       0.48150000       0.94080000
    20  H          0.37310000       0.98150000       0.55920000
    21  C          0.18733000       0.55073130      -0.01076000
    22  C          0.81267000       0.05073130       0.51076000
    23  C          0.81267000       0.44926870       0.01076000
    24  C          0.18733000       0.94926870       0.48924000
    25  H          0.17570000       0.55900000       0.10170000
    26  H          0.82430000       0.05900000       0.39830000
    27  H          0.82430000       0.44100000       0.89830000
    28  H          0.17570000       0.94100000       0.60170000
    29  C          0.08673000       0.56252130       0.84854000
    30  C          0.91327000       0.06252130       0.65146000
    31  C          0.91327000       0.43747870       0.15146000
    32  C          0.08673000       0.93747870       0.34854000
    33  H          0.00630000       0.57830000       0.86560000
    34  H         -0.00630000       0.07830000       0.63440000
    35  H         -0.00630000       0.42170000       0.13440000
    36  H          0.00630000       0.92170000       0.36560000
    37  C          0.10432000       0.55107110       0.68114000
    38  C          0.89568000       0.05107110       0.81886000
    39  C          0.89568000       0.44892890       0.31886000
    40  C          0.10432000       0.94892890       0.18114000
    41  H          0.03560000       0.55950000       0.58630000
    42  H          0.96440000       0.05950000       0.91370000
    43  H          0.96440000       0.44050000       0.41370000
    44  H          0.03560000       0.94050000       0.08630000
    45  C          0.24282000       0.51724900       0.46893000
    46  C          0.75718000       0.01724900       0.03107000
    47  C          0.75718000       0.48275100       0.53107000
    48  C          0.24282000       0.98275100       0.96893000
    49  H          0.15570000       0.52060000       0.39030000
    50  H          0.84430000       0.02060000       0.10970000
    51  H          0.84430000       0.47940000       0.60970000
    52  H          0.15570000       0.97940000       0.89030000
    53  C          0.29452000       0.45086100       0.44693000
    54  C          0.70548000       0.95086100       0.05307000
    55  C          0.70548000       0.54913900       0.55307000
    56  C          0.29452000       0.04913900       0.94693000
    57  O          0.21285160       0.40699700       0.46793000
    58  O          0.78714840       0.90699700       0.03207000
    59  O          0.78714840       0.59300300       0.53207000
    60  O          0.21285160       0.09300300       0.96793000
    61  H          0.25060000       0.37260000       0.47580000
    62  H          0.74940000       0.87260000       0.02420000
    63  H          0.74940000       0.62740000       0.52420000
    64  H          0.25060000       0.12740000       0.97580000
    65  O          0.40398190       0.44205800       0.41753000
    66  O          0.59601810       0.94205800       0.08247000
    67  O          0.59601810       0.55794200       0.58247000
    68  O          0.40398190       0.05794200       0.91753000
    69  O          0.32354180       0.56455700       0.41852000
    70  O          0.67645820       0.06455700       0.08148000
    71  O          0.67645820       0.43544300       0.58148000
    72  O          0.32354180       0.93544300       0.91852000
    73  H          0.41230000       0.55361300       0.46340000
    74  H          0.58770000       0.05361300       0.03660000
    75  H          0.58770000       0.44638700       0.53660000
    76  H          0.41230000       0.94638700       0.96340000
    77  C          0.39012000       0.26603100       0.59243000
    78  C          0.60988000       0.76603100       0.90757000
    79  C          0.60988000       0.73396900       0.40757000
    80  C          0.39012000       0.23396900       0.09243000
    81  C          0.48923000       0.30808120       0.67704000
    82  C          0.51077000       0.80808120       0.82296000
    83  C          0.51077000       0.69191880       0.32296000
    84  C          0.48923000       0.19191880       0.17704000
    85  H          0.47640000       0.35150000       0.66420000
    86  H          0.52360000       0.85150000       0.83580000
    87  H          0.52360000       0.64850000       0.33580000
    88  H          0.47640000       0.14850000       0.16420000
    89  C          0.60283000       0.28538150       0.77674000
    90  C          0.39717000       0.78538150       0.72326000
    91  C          0.39717000       0.71461850       0.22326000
    92  C          0.60283000       0.21461850       0.27674000
    93  H          0.66790000       0.31350000       0.83110000
    94  H          0.33210000       0.81350000       0.66890000
    95  H          0.33210000       0.68650000       0.16890000
    96  H          0.66790000       0.18650000       0.33110000
    97  C          0.62393000       0.21979170       0.79914000
    98  C          0.37607000       0.71979170       0.70086000
    99  C          0.37607000       0.78020830       0.20086000
   100  C          0.62393000       0.28020830       0.29914000
   101  H          0.70240000       0.20520000       0.86900000
   102  H          0.29760000       0.70520000       0.63100000
   103  H          0.29760000       0.79480000       0.13100000
   104  H          0.70240000       0.29480000       0.36900000
   105  C          0.53253000       0.17813140       0.72134000
   106  C          0.46747000       0.67813140       0.77866000
   107  C          0.46747000       0.82186860       0.27866000
   108  C          0.53253000       0.32186860       0.22134000
   109  H          0.54810000       0.13500000       0.73730000
   110  H          0.45190000       0.63500000       0.76270000
   111  H          0.45190000       0.86500000       0.26270000
   112  H          0.54810000       0.36500000       0.23730000
   113  C          0.41143000       0.19959110       0.61424000
   114  C          0.58857000       0.69959110       0.88576000
   115  C          0.58857000       0.80040890       0.38576000
   116  C          0.41143000       0.30040890       0.11424000
   117  C          0.31193000       0.15978110       0.52714000
   118  C          0.68807000       0.65978110       0.97286000
   119  C          0.68807000       0.84021890       0.47286000
   120  C          0.31193000       0.34021890       0.02714000
   121  H          0.32350000       0.11620000       0.53890000
   122  H          0.67650000       0.61620000       0.96110000
   123  H          0.67650000       0.88380000       0.46110000
   124  H          0.32350000       0.38380000       0.03890000
   125  C          0.19643000       0.18283100       0.42334000
   126  C          0.80357000       0.68283100       0.07666000
   127  C          0.80357000       0.81716900       0.57666000
   128  C          0.19643000       0.31716900       0.92334000
   129  C          0.09113000       0.14471130       0.33044000
   130  C          0.90887000       0.64471130       0.16956000
   131  C          0.90887000       0.85528870       0.66956000
   132  C          0.09113000       0.35528870       0.83044000
   133  H          0.09930000       0.10090000       0.33560000
   134  H          0.90070000       0.60090000       0.16440000
   135  H          0.90070000       0.89910000       0.66440000
   136  H          0.09930000       0.39910000       0.83560000
   137  C          0.98026000       0.17067140       0.23514000
   138  C          0.01974000       0.67067140       0.26486000
   139  C          0.01974000       0.82932860       0.76486000
   140  C          0.98026000       0.32932860       0.73514000
   141  H          0.91270000       0.14470000       0.17660000
   142  H          0.08730000       0.64470000       0.32340000
   143  H          0.08730000       0.85530000       0.82340000
   144  H          0.91270000       0.35530000       0.67660000
   145  C          0.96547000       0.23685130       0.22324000
   146  C          0.03453000       0.73685130       0.27676000
   147  C          0.03453000       0.76314870       0.77676000
   148  C          0.96547000       0.26314870       0.72324000
   149  H          0.88810000       0.25400000       0.15700000
   150  H          0.11190000       0.75400000       0.34300000
   151  H          0.11190000       0.74600000       0.84300000
   152  H          0.88810000       0.24600000       0.65700000
   153  C          0.06243000       0.27571110       0.30683000
   154  C          0.93757000       0.77571110       0.19317000
   155  C          0.93757000       0.72428890       0.69317000
   156  C          0.06243000       0.22428890       0.80683000
   157  H          0.05150000       0.31930000       0.29720000
   158  H          0.94850000       0.81930000       0.20280000
   159  H          0.94850000       0.68070000       0.70280000
   160  H          0.05150000       0.18070000       0.79720000
   161  C          0.18082000       0.25003100       0.40933000
   162  C          0.81918000       0.75003100       0.09067000
   163  C          0.81918000       0.74996900       0.59067000
   164  C          0.18082000       0.24996900       0.90933000
   165  N          0.27654190       0.28912800       0.49263000
   166  N          0.72345810       0.78912800       0.00737000
   167  N          0.72345810       0.71087200       0.50737000
   168  N          0.27654190       0.21087200      -0.00737000
