data_OVUMEY
_symmetry_space_group_name_H-M    'P1'
_symmetry_Int_Tables_number       1
loop_
_symmetry_equiv_pos_site_id
_symmetry_equiv_pos_as_xyz
1 x,y,z
_cell_length_a                   13.38605
_cell_length_b                   8.34203
_cell_length_c                   15.52006
_cell_angle_alpha                90.0
_cell_angle_beta                 93.5241
_cell_angle_gamma                90.0
loop_
_atom_site_label
_atom_site_type_symbol
_atom_site_fract_x
_atom_site_fract_y
_atom_site_fract_z
     1  C          0.50172170       0.31403000       0.10992180
     2  C          0.49827830       0.81403000       0.89007820
     3  C          0.55699180       0.21843000       0.16919180
     4  C          0.44300820       0.71843000       0.83080820
     5  C          0.52832000       0.20294000       0.25242000
     6  C          0.47168000       0.70294000       0.74758000
     7  C          0.44462000       0.28035000       0.27732000
     8  C          0.55538000       0.78035000       0.72268000
     9  H          0.42660000       0.27190000       0.33410000
    10  H          0.57340000       0.77190000       0.66590000
    11  C          0.38672000       0.37105000       0.21862000
    12  C          0.61328000       0.87105000       0.78138000
    13  H          0.32840000       0.41970000       0.23520000
    14  H          0.67160000       0.91970000       0.76480000
    15  C          0.41572000       0.38874000       0.13552000
    16  C          0.58428000       0.88874000       0.86448000
    17  H          0.37740000       0.45100000       0.09620000
    18  H          0.62260000       0.95100000       0.90380000
    19  C          0.53987170       0.34493000       0.02369170
    20  C          0.46012830       0.84493000       0.97630830
    21  C          0.61721180       0.39293000       0.87143850
    22  C          0.38278820       0.89293000       0.12856150
    23  C          0.62764160       0.44493000       0.01599140
    24  C          0.37235840       0.94493000       0.98400860
    25  N          0.49201160       0.28613000       0.95693850
    26  N          0.50798840       0.78613000       0.04306150
    27  N          0.52979170       0.31303000       0.88010850
    28  N          0.47020830       0.81303000       0.11989150
    29  H          0.48830000       0.27050000       0.83270000
    30  H          0.51170000       0.77050000       0.16730000
    31  N          0.65232000       0.40133000       0.79480850
    32  N          0.34768000       0.90133000       0.20519150
    33  H          0.61330000       0.34940000       0.75780000
    34  H          0.38670000       0.84940000       0.24220000
    35  H          0.70520000       0.44640000       0.78978300
    36  H          0.29480000       0.94640000       0.21021700
    37  N          0.66649140       0.46302000       0.93945870
    38  N          0.33350860       0.96302000       0.06054130
    39  N          0.66969150       0.51553000       0.08422140
    40  N          0.33030850       0.01553000       0.91577860
    41  H          0.71231800       0.58830000       0.07381900
    42  H          0.28768200       0.08830000       0.92618100
    43  H          0.64320000       0.51940000       0.13651900
    44  H          0.35680000       0.01940000       0.86348100
    45  Cl         0.66123600       0.11808100       0.13512600
    46  Cl         0.33876400       0.61808100       0.86487400
    47  Cl         0.59886800       0.09023140       0.32653700
    48  Cl         0.40113200       0.59023140       0.67346300
    49  C          0.98823170       0.93303000       0.91510830
    50  C          0.01176830       0.43303000       0.08489170
    51  C          0.93491170       0.03263000       0.85669830
    52  C          0.06508830       0.53263000       0.14330170
    53  C          0.96682000       0.05614000       0.77463820
    54  C          0.03318000       0.55614000       0.22536180
    55  C          0.05292000       0.98184000       0.75098000
    56  C          0.94708000       0.48184000       0.24902000
    57  H          0.07380000      -0.00450000       0.69540000
    58  H          0.92620000       0.49550000       0.30460000
    59  C          0.10772000       0.88794000       0.80868000
    60  C          0.89228000       0.38794000       0.19132000
    61  H          0.16680000       0.84090000       0.79280000
    62  H          0.83320000       0.34090000       0.20720000
    63  C          0.07552000       0.86284000       0.89054810
    64  C          0.92448000       0.36284000       0.10945190
    65  H          0.11290000       0.79830000       0.92930000
    66  H          0.88710000       0.29830000       0.07070000
    67  C          0.94642170       0.89613000      -0.00083160
    68  C          0.05357830       0.39613000       0.00083160
    69  C          0.85946190       0.84533000       0.14543150
    70  C          0.14053810       0.34533000       0.85456850
    71  C          0.86176160       0.78963000       0.00202140
    72  C          0.13823840       0.28963000      -0.00202140
    73  N          0.98466180       0.96133000       0.07003160
    74  N          0.01533820       0.46133000       0.92996840
    75  N          0.94242000       0.93333000       0.14512140
    76  N          0.05758000       0.43333000       0.85487860
    77  N          0.81532000       0.82893000       0.22060140
    78  N          0.18468000       0.32893000       0.77939860
    79  H          0.84220000       0.90750000       0.25720000
    80  H          0.15780000       0.40750000       0.74280000
    81  H          0.75640000       0.79770000       0.22130000
    82  H          0.24360000       0.29770000       0.77870000
    83  N          0.81812140       0.76902000       0.07620120
    84  N          0.18187860       0.26902000       0.92379880
    85  N          0.82608170       0.71343000       0.93272860
    86  N          0.17391830       0.21343000       0.06727140
    87  H          0.78411900       0.63740000       0.93638400
    88  H          0.21588100       0.13740000       0.06361600
    89  H          0.85221700       0.71930000       0.88808300
    90  H          0.14778300       0.21930000       0.11191700
    91  Cl         0.82884500       0.12979100       0.88881500
    92  Cl         0.17115500       0.62979100       0.11118500
    93  Cl         0.89866700       0.17276120       0.70071400
    94  Cl         0.10133300       0.67276120       0.29928600
    95  C          0.55382000       0.66064000       0.30624150
    96  C          0.44618000       0.16064000       0.69375850
    97  C          0.60848190       0.56793000       0.37851150
    98  C          0.39151810       0.06793000       0.62148850
    99  C          0.70362000       0.51345000       0.37122000
   100  C          0.29638000       0.01345000       0.62878000
   101  H          0.73580000       0.53290000       0.32080000
   102  H          0.26420000       0.03290000       0.67920000
   103  C          0.75253000       0.42986000       0.43753000
   104  C          0.24747000       0.92986000       0.56247000
   105  H          0.81760000       0.39330000       0.43320000
   106  H          0.18240000       0.89330000       0.56680000
   107  C          0.70153000       0.40216000       0.51073000
   108  C          0.29847000       0.90216000       0.48927000
   109  C          0.60853000       0.45525000       0.52062000
   110  C          0.39147000       0.95525000       0.47938000
   111  H          0.57690000       0.43570000       0.57120000
   112  H          0.42310000       0.93570000       0.42880000
   113  C          0.56102000       0.53984000       0.45340170
   114  C          0.43898000       0.03984000       0.54659830
   115  H          0.49640000       0.57820000       0.45870000
   116  H          0.50360000       0.07820000       0.54130000
   117  O          0.59678160       0.67433000       0.23585110
   118  O          0.40321840       0.17433000       0.76414890
   119  O          0.47001160       0.71583000       0.31926120
   120  O          0.52998840       0.21583000       0.68073880
   121  F          0.75203000       0.32175000       0.57642000
   122  F          0.24797000       0.82175000       0.42358000
   123  C          0.90962000       0.62194000       0.70330830
   124  C          0.09038000       0.12194000       0.29669170
   125  C          0.88522000       0.70854000       0.62079850
   126  C          0.11478000       0.20854000       0.37920150
   127  C          0.79352000       0.77495000       0.60818000
   128  C          0.20648000       0.27495000       0.39182000
   129  H          0.74770000       0.76200000       0.65030000
   130  H          0.25230000       0.26200000       0.34970000
   131  C          0.76543000       0.86227000       0.53408000
   132  C          0.23457000       0.36227000       0.46592000
   133  H          0.70180000       0.90650000       0.52580000
   134  H          0.29820000       0.40650000       0.47420000
   135  C          0.83413000       0.87985000       0.47494820
   136  C          0.16587000       0.37985000       0.52505180
   137  C          0.92633000       0.81535000       0.48334810
   138  C          0.07367000       0.31535000       0.51665190
   139  H          0.97100000       0.82820000       0.44030000
   140  H          0.02900000       0.32820000       0.55970000
   141  C          0.95302000       0.72974000       0.55721820
   142  C          0.04698000       0.22974000       0.44278180
   143  H          0.01680000       0.68570000       0.56460000
   144  H          0.98320000       0.18570000       0.43540000
   145  O          0.85016180       0.61284000       0.75935870
   146  O          0.14983820       0.11284000       0.24064130
   147  O         -0.00081830       0.56483000       0.70855860
   148  O          0.00081830       0.06483000       0.29144140
   149  H          0.00930000       0.51820000       0.75480000
   150  H         -0.00930000       0.01820000       0.24520000
   151  F          0.80852000       0.96684000       0.40241860
   152  F          0.19148000       0.46684000       0.59758140
