data_OWIYAV
_symmetry_space_group_name_H-M    'P1'
_symmetry_Int_Tables_number       1
loop_
_symmetry_equiv_pos_site_id
_symmetry_equiv_pos_as_xyz
1 x,y,z
_cell_length_a                   10.52643
_cell_length_b                   5.107101
_cell_length_c                   37.636714
_cell_angle_alpha                90.0
_cell_angle_beta                 90.16901
_cell_angle_gamma                90.0
loop_
_atom_site_label
_atom_site_type_symbol
_atom_site_fract_x
_atom_site_fract_y
_atom_site_fract_z
     1  C          0.05163190       0.44334000       0.34871600
     2  C          0.94836810       0.94334000       0.15128400
     3  C          0.94836810       0.55666000       0.65128400
     4  C          0.05163190       0.05666000       0.84871600
     5  C          0.98253820       0.45643000       0.31557600
     6  C          0.01746180       0.95643000       0.18442400
     7  C          0.01746180       0.54357000       0.68442400
     8  C          0.98253820       0.04357000       0.81557600
     9  C          0.88148000       0.61654000       0.30930700
    10  C          0.11852000       0.11654000       0.19069300
    11  C          0.11852000       0.38346000       0.69069300
    12  C          0.88148000       0.88346000       0.80930700
    13  C          0.84361810       0.78664000       0.33591600
    14  C          0.15638190       0.28664000       0.16408400
    15  C          0.15638190       0.21336000       0.66408400
    16  C          0.84361810       0.71336000       0.83591600
    17  C          0.90708000       0.79664000       0.36793700
    18  C          0.09292000       0.29664000       0.13206300
    19  C          0.09292000       0.20336000       0.63206300
    20  C          0.90708000       0.70336000       0.86793700
    21  C          0.00841180       0.63243000       0.37412600
    22  C         -0.00841180       0.13243000       0.12587400
    23  C         -0.00841180       0.36757000       0.62587400
    24  C          0.00841180       0.86757000       0.87412600
    25  N          0.01932000       0.27813000       0.28678500
    26  N          0.98068000       0.77813000       0.21321500
    27  N          0.98068000       0.72187000       0.71321500
    28  N          0.01932000       0.22187000       0.78678500
    29  N          0.73444820       0.95624000       0.33052700
    30  N          0.26555180       0.45624000       0.16947300
    31  N          0.26555180       0.04376000       0.66947300
    32  N          0.73444820       0.54376000       0.83052700
    33  N          0.06835170       0.65583000       0.40874500
    34  N          0.93164830       0.15583000       0.09125500
    35  N          0.93164830       0.34417000       0.59125500
    36  N          0.06835170       0.84417000       0.90874500
    37  O          0.13611150       0.27413000       0.35358400
    38  O          0.86388850       0.77413000       0.14641600
    39  O          0.86388850       0.72587000       0.64641600
    40  O          0.13611150       0.22587000       0.85358400
    41  O          0.13215170       0.23533000       0.28185500
    42  O          0.86784830       0.73533000       0.21814500
    43  O          0.86784830       0.76467000       0.71814500
    44  O          0.13215170       0.26467000       0.78185500
    45  O          0.93393830       0.18453000       0.26861500
    46  O          0.06606170       0.68453000       0.23138500
    47  O          0.06606170       0.81547000       0.73138500
    48  O          0.93393830       0.31547000       0.76861500
    49  O          0.67779850       0.94463000       0.30215500
    50  O          0.32220150       0.44463000       0.19784500
    51  O          0.32220150       0.05537000       0.69784500
    52  O          0.67779850       0.55537000       0.80215500
    53  O          0.70415830       0.10314000       0.35486600
    54  O          0.29584170       0.60314000       0.14513400
    55  O          0.29584170       0.89686000       0.64513400
    56  O          0.70415830       0.39686000       0.85486600
    57  O          0.15863160       0.51363000       0.41608400
    58  O          0.84136840       0.01363000       0.08391600
    59  O          0.84136840       0.48637000       0.58391600
    60  O          0.15863160      -0.01363000       0.91608400
    61  O          0.02758150       0.81803000       0.42964500
    62  O          0.97241850       0.31803000       0.07035500
    63  O          0.97241850       0.18197000       0.57035500
    64  O          0.02758150       0.68197000       0.92964500
    65  H          0.87998300       0.91830000       0.38636000
    66  H          0.12001700       0.41830000       0.11364000
    67  H          0.12001700       0.08170000       0.61364000
    68  H          0.87998300       0.58170000       0.88636000
    69  H          0.83868300       0.60430000       0.28786000
    70  H          0.16131700       0.10430000       0.21214000
    71  H          0.16131700       0.39570000       0.71214000
    72  H          0.83868300       0.89570000       0.78786000
    73  C          0.34990180       0.88436000       0.37177600
    74  C          0.65009820       0.38436000       0.12822400
    75  C          0.65009820       0.11564000       0.62822400
    76  C          0.34990180       0.61564000       0.87177600
    77  C          0.49232000       0.53166000       0.36858800
    78  C          0.50768000       0.03166000       0.13141200
    79  C          0.50768000       0.46834000       0.63141200
    80  C          0.49232000       0.96834000       0.86858800
    81  C          0.47672000       0.51355000       0.33326800
    82  C          0.52328000       0.01355000       0.16673200
    83  C          0.52328000       0.48645000       0.66673200
    84  C          0.47672000      -0.01355000       0.83326800
    85  C          0.39409190       0.68606000       0.31568600
    86  C          0.60590810       0.18606000       0.18431400
    87  C          0.60590810       0.31394000       0.68431400
    88  C          0.39409190       0.81394000       0.81568600
    89  C          0.33152000       0.87016000       0.33549700
    90  C          0.66848000       0.37016000       0.16450300
    91  C          0.66848000       0.12984000       0.66450300
    92  C          0.33152000       0.62984000       0.83549700
    93  C          0.37594000       0.67182000       0.27649800
    94  C          0.62406000       0.17182000       0.22350200
    95  C          0.62406000       0.32818000       0.72350200
    96  C          0.37594000       0.82818000       0.77649800
    97  N          0.42922160       0.71407000       0.38780600
    98  N          0.57077840       0.21407000       0.11219400
    99  N          0.57077840       0.28593000       0.61219400
   100  N          0.42922160       0.78593000       0.88780600
   101  O          0.29676150       0.05403000       0.39373400
   102  O          0.70323850       0.55403000       0.10626600
   103  O          0.70323850       0.94597000       0.60626600
   104  O          0.29676150       0.44597000       0.89373400
   105  H          0.27741700      -0.01230000       0.32405000
   106  H          0.72258300       0.48770000       0.17595000
   107  H          0.72258300       0.01230000       0.67595000
   108  H          0.27741700       0.51230000       0.82405000
   109  H          0.54621900       0.41260000       0.38266000
   110  H          0.45378100       0.91260000       0.11734000
   111  H          0.45378100       0.58740000       0.61734000
   112  H          0.54621900       0.08740000       0.88266000
   113  H          0.44120000       0.72160000       0.41317000
   114  H          0.55880000       0.22160000       0.08683000
   115  H          0.55880000       0.27840000       0.58683000
   116  H          0.44120000       0.77840000       0.91317000
   117  H          0.51920000       0.38960000       0.32186000
   118  H          0.48080000       0.88960000       0.17814000
   119  H          0.48080000       0.61040000       0.67814000
   120  H          0.51920000       0.11040000       0.82186000
   121  H          0.23530000       0.14450000       0.37998000
   122  H          0.76470000       0.64450000       0.12002000
   123  H          0.76470000       0.85550000       0.62002000
   124  H          0.23530000       0.35550000       0.87998000
   125  H          0.33040000       0.79420000       0.26911300
   126  H          0.66960000       0.29420000       0.23088700
   127  H          0.66960000       0.20580000       0.73088700
   128  H          0.33040000       0.70580000       0.76911300
   129  H          0.35430000       0.51040000       0.26951000
   130  H          0.64570000       0.01040000       0.23049000
   131  H          0.64570000       0.48960000       0.73049000
   132  H          0.35430000      -0.01040000       0.76951000
   133  H          0.45240000       0.68230000       0.26341100
   134  H          0.54760000       0.18230000       0.23658900
   135  H          0.54760000       0.31770000       0.73658900
   136  H          0.45240000       0.81770000       0.76341100
   137  C          0.58732000       0.78776000       0.46914700
   138  C          0.41268000       0.28776000       0.03085300
   139  C          0.41268000       0.21224000       0.53085300
   140  C          0.58732000       0.71224000       0.96914700
   141  C          0.65312000      -0.01374000       0.45053700
   142  C          0.34688000       0.48626000       0.04946300
   143  C          0.34688000       0.01374000       0.54946300
   144  C          0.65312000       0.51374000       0.95053700
   145  C          0.75322000       0.11594000       0.46484700
   146  C          0.24678000       0.61594000       0.03515300
   147  C          0.24678000       0.88406000       0.53515300
   148  C          0.75322000       0.38406000       0.96484700
   149  C          0.79233000       0.05185000       0.49953800
   150  C          0.20767000       0.55185000       0.00046200
   151  C          0.20767000       0.94815000       0.50046200
   152  C          0.79233000       0.44815000      -0.00046200
   153  C          0.72963000       0.86564000       0.51747800
   154  C          0.27037000       0.36564000       0.98252200
   155  C          0.27037000       0.13436000       0.48252200
   156  C          0.72963000       0.63436000       0.01747800
   157  C          0.82424000       0.32196000       0.44435110
   158  C          0.17576000       0.82196000       0.05564890
   159  C          0.17576000       0.67804000       0.55564890
   160  C          0.82424000       0.17804000       0.94435110
   161  N          0.63005180       0.73746000       0.50250600
   162  N          0.36994820       0.23746000      -0.00250600
   163  N          0.36994820       0.26254000       0.49749400
   164  N          0.63005180       0.76254000       0.00250600
   165  O          0.49429140       0.65597000       0.45706400
   166  O          0.50570860       0.15597000       0.04293600
   167  O          0.50570860       0.34403000       0.54293600
   168  O          0.49429140       0.84403000       0.95706400
   169  H          0.62671800       0.02030000       0.42676000
   170  H          0.37328200       0.52030000       0.07324000
   171  H          0.37328200      -0.02030000       0.57324000
   172  H          0.62671800       0.47970000       0.92676000
   173  H          0.85920000       0.14340000       0.51037000
   174  H          0.14080000       0.64340000       0.98963000
   175  H          0.14080000       0.85660000       0.48963000
   176  H          0.85920000       0.35660000       0.01037000
   177  H          0.58620000       0.60760000       0.51647000
   178  H          0.41380000       0.10760000       0.98353000
   179  H          0.41380000       0.39240000       0.48353000
   180  H          0.58620000       0.89240000       0.01647000
   181  H          0.74820000       0.81060000       0.54078000
   182  H          0.25180000       0.31060000       0.95922000
   183  H          0.25180000       0.18940000       0.45922000
   184  H          0.74820000       0.68940000       0.04078000
   185  H          0.90830000       0.27450000       0.44178000
   186  H          0.09170000       0.77450000       0.05822000
   187  H          0.09170000       0.72550000       0.55822000
   188  H          0.90830000       0.22550000       0.94178000
   189  H          0.82720000       0.48250000       0.45848000
   190  H          0.17280000      -0.01750000       0.04152000
   191  H          0.17280000       0.51750000       0.54152000
   192  H          0.82720000       0.01750000       0.95848000
   193  H          0.78630000       0.36860000       0.42151000
   194  H          0.21370000       0.86860000       0.07849000
   195  H          0.21370000       0.63140000       0.57849000
   196  H          0.78630000       0.13140000       0.92151000
