data_OWOJIV
_symmetry_space_group_name_H-M    'P1'
_symmetry_Int_Tables_number       1
loop_
_symmetry_equiv_pos_site_id
_symmetry_equiv_pos_as_xyz
1 x,y,z
_cell_length_a                   6.10634
_cell_length_b                   9.29186
_cell_length_c                   9.57736
_cell_angle_alpha                83.2805
_cell_angle_beta                 73.7556
_cell_angle_gamma                76.1666
loop_
_atom_site_label
_atom_site_type_symbol
_atom_site_fract_x
_atom_site_fract_y
_atom_site_fract_z
     1  S          0.79820500       0.73794300       0.49150300
     2  S          0.20179500       0.26205700       0.50849700
     3  N          0.37127160       0.70272100       0.64503100
     4  N          0.62872840       0.29727900       0.35496900
     5  C          0.59857190       0.64022120       0.59572110
     6  C          0.40142810       0.35977880       0.40427890
     7  N          0.67058180       0.49667110       0.63106110
     8  N          0.32941820       0.50332890       0.36893890
     9  H          0.58230000       0.44031900       0.68331800
    10  H          0.41770000       0.55968100       0.31668200
    11  H          0.81730000       0.45721600       0.59361600
    12  H          0.18270000       0.54278400       0.40638400
    13  C          0.28082000       0.86241130       0.62763130
    14  C          0.71918000       0.13758870       0.37236870
    15  H          0.27580000       0.91030000       0.71470000
    16  H          0.72420000       0.08970000       0.28530000
    17  H          0.12290000       0.88040000       0.61430000
    18  H          0.87710000       0.11960000       0.38570000
    19  H          0.38310000       0.90350000       0.54220000
    20  H          0.61690000       0.09650000       0.45780000
    21  C          0.20852000       0.61641140       0.73675130
    22  C          0.79148000       0.38358860       0.26324870
    23  H          0.22480000       0.52480000       0.68990000
    24  H          0.77520000       0.47520000       0.31010000
    25  H          0.04830000       0.67480000       0.75030000
    26  H          0.95170000       0.32520000       0.24970000
    27  H          0.24330000       0.59170000       0.83170000
    28  H          0.75670000       0.40830000       0.16830000
    29  N          0.46880180       0.24597110       0.79170110
    30  N          0.53119820       0.75402890       0.20829890
    31  H          0.39430000       0.23261700       0.73541700
    32  H          0.60570000       0.76738300       0.26458300
    33  O          0.68621150       0.15731100       0.02287900
    34  O          0.31378850       0.84268900       0.97712100
    35  C          0.82062000       0.16188140       0.87460130
    36  C          0.17938000       0.83811860       0.12539870
    37  H          0.96810000       0.08600000       0.86320000
    38  H          0.03190000       0.91400000       0.13680000
    39  H          0.86070000       0.26040000       0.84850000
    40  H          0.13930000       0.73960000       0.15150000
    41  C          0.68752000       0.13350140       0.77240120
    42  C          0.31248000       0.86649860       0.22759880
    43  H          0.78260000       0.13910000       0.67030000
    44  H          0.21740000       0.86090000       0.32970000
    45  H          0.65350000       0.03310000       0.79440000
    46  H          0.34650000       0.96690000       0.20560000
    47  C          0.47032000       0.26320140       0.04189130
    48  C          0.52968000       0.73679860       0.95810870
    49  H          0.50150000       0.36430000       0.02040000
    50  H          0.49850000       0.63570000       0.97960000
    51  H          0.37840000       0.25650000       0.14460000
    52  H          0.62160000       0.74350000       0.85540000
    53  C          0.32932000       0.23766140       0.94323130
    54  C          0.67068000       0.76233860       0.05676870
    55  H          0.28960000       0.13890000       0.96760000
    56  H          0.71040000       0.86110000       0.03240000
    57  H          0.18210000       0.31400000       0.95680000
    58  H          0.81790000       0.68600000       0.04320000
