data_OXODOW02
_symmetry_space_group_name_H-M    'P1'
_symmetry_Int_Tables_number       1
loop_
_symmetry_equiv_pos_site_id
_symmetry_equiv_pos_as_xyz
1 x,y,z
_cell_length_a                   5.5022
_cell_length_b                   8.8653
_cell_length_c                   10.4095
_cell_angle_alpha                107.7575
_cell_angle_beta                 97.8785
_cell_angle_gamma                93.1995
loop_
_atom_site_label
_atom_site_type_symbol
_atom_site_fract_x
_atom_site_fract_y
_atom_site_fract_z
     1  F          0.08912000       0.24349160       0.33310130
     2  F          0.91088000       0.75650840       0.66689870
     3  O          0.36733000       0.54262180       0.14586150
     4  O          0.63267000       0.45737820       0.85413850
     5  O          0.74953000       0.38418190       0.49351140
     6  O          0.25047000       0.61581810       0.50648860
     7  N          0.70443000       0.40652000       0.11088180
     8  N          0.29557000       0.59348000       0.88911820
     9  H          0.68840000       0.41830000       0.02620000
    10  H          0.31160000       0.58170000       0.97380000
    11  N          0.56283000       0.46262000       0.31819170
    12  N          0.43717000       0.53738000       0.68180830
    13  H          0.44940000       0.50830000       0.37020000
    14  H          0.55060000       0.49170000       0.62980000
    15  C          0.88914000       0.32853000       0.15762000
    16  C          0.11086000       0.67147000       0.84238000
    17  H          0.00200000       0.28090000       0.09990000
    18  H         -0.00200000       0.71910000       0.90010000
    19  C          0.90904000       0.31982000       0.28452000
    20  C          0.09096000       0.68018000       0.71548000
    21  C          0.74164000       0.38933000       0.37592000
    22  C          0.25836000       0.61067000       0.62408000
    23  C          0.53504000       0.47472000       0.18792000
    24  C          0.46496000       0.52528000       0.81208000
    25  N          0.81304000       0.85232000       0.11141190
    26  N          0.18696000       0.14768000       0.88858810
    27  C          0.94534000       0.79473000       0.20033000
    28  C          0.05466000       0.20527000       0.79967000
    29  H          0.07790000       0.73620000       0.17080000
    30  H          0.92210000       0.26380000       0.82920000
    31  C          0.90324000       0.81433000       0.33172000
    32  C          0.09676000       0.18567000       0.66828000
    33  H          0.00320000       0.77110000       0.39080000
    34  H         -0.00320000       0.22890000       0.60920000
    35  C          0.71125000       0.89863000       0.37372000
    36  C          0.28875000       0.10137000       0.62628000
    37  H          0.67470000       0.91450000       0.46320000
    38  H          0.32530000       0.08550000       0.53680000
    39  C          0.57174000       0.96003000       0.28492000
    40  C          0.42826000       0.03997000       0.71508000
    41  H          0.43870000       0.01910000       0.31290000
    42  H          0.56130000      -0.01910000       0.68710000
    43  C          0.62654000       0.93513000       0.15492000
    44  C          0.37346000       0.06487000       0.84508000
    45  C          0.47684000       0.00243000       0.06122000
    46  C          0.52316000      -0.00243000       0.93878000
    47  H          0.33720000       0.05260000       0.09080000
    48  H          0.66280000       0.94740000       0.90920000
