data_OXOHAM
_symmetry_space_group_name_H-M    'P1'
_symmetry_Int_Tables_number       1
loop_
_symmetry_equiv_pos_site_id
_symmetry_equiv_pos_as_xyz
1 x,y,z
_cell_length_a                   8.93409
_cell_length_b                   5.15875
_cell_length_c                   43.2254
_cell_angle_alpha                90.0
_cell_angle_beta                 93.0007
_cell_angle_gamma                90.0
loop_
_atom_site_label
_atom_site_type_symbol
_atom_site_fract_x
_atom_site_fract_y
_atom_site_fract_z
     1  O          0.38272000       0.50465000       0.04939500
     2  O          0.61728000       0.50465000       0.95060500
     3  O          0.53062000       0.84235000       0.03902500
     4  O          0.46938000       0.84235000       0.96097500
     5  O          0.51023000       0.55995000       0.11478500
     6  O          0.48977000       0.55995000       0.88521500
     7  H          0.44230000       0.45790000       0.11020000
     8  H          0.55770000       0.45790000       0.88980000
     9  O          0.72123000       0.01855000       0.11076500
    10  O          0.27877000       0.01855000       0.88923500
    11  H          0.69350000      -0.02560000       0.12780000
    12  H          0.30650000      -0.02560000       0.87220000
    13  O          0.85223000       0.75664000       0.04204500
    14  O          0.14777000       0.75664000       0.95795500
    15  H          0.80890000       0.66220000       0.02920000
    16  H          0.19110000       0.66220000       0.97080000
    17  O          0.71303000       0.36705000       0.00940500
    18  O          0.28697000       0.36705000       0.99059500
    19  H          0.67280000       0.40590000       0.99250000
    20  H          0.32720000       0.40590000       0.00750000
    21  C          0.76834000       0.10557000       0.00825700
    22  C          0.23166000       0.10557000       0.99174300
    23  H          0.86450000       0.10210000      -0.00120000
    24  H          0.13550000       0.10210000       0.00120000
    25  H          0.69880000      -0.00230000       0.99600000
    26  H          0.30120000      -0.00230000       0.00400000
    27  C          0.78434000       0.00657000       0.04110700
    28  C          0.21566000       0.00657000       0.95889300
    29  H          0.85200000       0.12480000       0.05280000
    30  H          0.14800000       0.12480000       0.94720000
    31  C          0.63573000       0.00918000       0.05652700
    32  C          0.36427000       0.00918000       0.94347300
    33  H          0.59640000       0.18650000       0.05620000
    34  H          0.40360000       0.18650000       0.94380000
    35  C          0.47544000       0.66487000       0.05887800
    36  C          0.52456000       0.66487000       0.94112200
    37  C          0.54113000       0.70377000       0.08959700
    38  C          0.45887000       0.70377000       0.91040300
    39  C          0.63483000       0.90677000       0.08862700
    40  C          0.36517000       0.90677000       0.91137300
    41  O          0.84378000       0.85605000       0.45089500
    42  O          0.15622000       0.85605000       0.54910500
    43  O         -0.00232000       0.51955000       0.46091500
    44  O          0.00232000       0.51955000       0.53908500
    45  O          0.92397000       0.78445000       0.38489500
    46  O          0.07603000       0.78445000       0.61510500
    47  H          0.86290000       0.89300000       0.38990000
    48  H          0.13710000       0.89300000       0.61010000
    49  O          0.13703000       0.32915000       0.38826500
    50  O          0.86297000       0.32915000       0.61173500
    51  H          0.11320000       0.39780000       0.37160000
    52  H          0.88680000       0.39780000       0.62840000
    53  O          0.31563000       0.60665000       0.45411600
    54  O          0.68437000       0.60665000       0.54588400
    55  O          0.20723000      -0.00375000       0.48952600
    56  O          0.79277000      -0.00375000       0.51047400
    57  H          0.18690000       0.95540000       0.50720000
    58  H          0.81310000       0.95540000       0.49280000
    59  C          0.26214000       0.25897000       0.48954800
    60  C          0.73786000       0.25897000       0.51045200
    61  H          0.36560000       0.26420000       0.49750000
    62  H          0.63440000       0.26420000       0.50250000
    63  H          0.20280000       0.36700000       0.50260000
    64  H          0.79720000       0.36700000       0.49740000
    65  C          0.25014000       0.35677000       0.45639700
    66  C          0.74986000       0.35677000       0.54360300
    67  H          0.30860000       0.23840000       0.44400000
    68  H          0.69140000       0.23840000       0.55600000
    69  C          0.09023000       0.34877000       0.44303700
    70  C          0.90977000       0.34877000       0.55696300
    71  H          0.05210000       0.17100000       0.44410000
    72  H          0.94790000       0.17100000       0.55590000
    73  C          0.06704000       0.44676000       0.41074800
    74  C          0.93296000       0.44676000       0.58925200
    75  C          0.97296000       0.64757000       0.41019700
    76  C          0.02704000       0.64757000       0.58980300
    77  C          0.92866000       0.69437000       0.44126800
    78  C          0.07134000       0.69437000       0.55873200
    79  H          0.28040000       0.70970000       0.46518000
    80  H          0.71960000       0.70970000       0.53482000
    81  O          0.39533000       0.87185000       0.34141500
    82  O          0.60467000       0.87185000       0.65858500
    83  N          0.72583000       0.16386000       0.38566700
    84  N          0.27417000       0.16386000       0.61433300
    85  N          0.33123000       0.86326000       0.39099600
    86  N          0.66877000       0.86326000       0.60900400
    87  H          0.26630000      -0.01520000       0.38800000
    88  H          0.73370000      -0.01520000       0.61200000
    89  H          0.34500000       0.79470000       0.40900000
    90  H          0.65500000       0.79470000       0.59100000
    91  C          0.56753000       0.49397000       0.40490700
    92  C          0.43247000       0.49397000       0.59509300
    93  H          0.53140000       0.58050000       0.42180000
    94  H          0.46860000       0.58050000       0.57820000
    95  C          0.52054000       0.56487000       0.37496800
    96  C          0.47946000       0.56487000       0.62503200
    97  C          0.40974000       0.78167000       0.36787800
    98  C          0.59026000       0.78167000       0.63212200
    99  C          0.58014000       0.43397000       0.35051800
   100  C          0.41986000       0.43397000       0.64948200
   101  H          0.55260000       0.47780000       0.33010000
   102  H          0.44740000       0.47780000       0.66990000
   103  C          0.68114000       0.23688000       0.35704800
   104  C          0.31886000       0.23688000       0.64295200
   105  H          0.72050000       0.14950000       0.34050000
   106  H          0.27950000       0.14950000       0.65950000
   107  C          0.66874000       0.29227000       0.40914800
   108  C          0.33126000       0.29227000       0.59085200
   109  H          0.69840000       0.24400000       0.42930000
   110  H          0.30160000       0.24400000       0.57070000
   111  O          0.54903000       0.28595000       0.27292600
   112  O          0.45097000       0.28595000       0.72707400
   113  N          0.51403000       0.85746000       0.27984700
   114  N          0.48597000       0.85746000       0.72015300
   115  H          0.48810000       0.87710000       0.29860000
   116  H          0.51190000       0.87710000       0.70140000
   117  H          0.51660000       0.70480000       0.27190000
   118  H          0.48340000       0.70480000       0.72810000
   119  N          0.66083000       0.95156000       0.16878700
   120  N          0.33917000       0.95156000       0.83121300
   121  C          0.52745000       0.81829000       0.21224800
   122  C          0.47255000       0.81829000       0.78775200
   123  H          0.45980000       0.70350000       0.22050000
   124  H          0.54020000       0.70350000       0.77950000
   125  C          0.59084000       0.01028000       0.23030800
   126  C          0.40916000       0.01028000       0.76969200
   127  C          0.55004000       0.06318000       0.26316800
   128  C          0.44996000       0.06318000       0.73683200
   129  C          0.69204000       0.17118000       0.21683900
   130  C          0.30796000       0.17118000       0.78316100
   131  H          0.73860000       0.30350000       0.22830000
   132  H          0.26140000       0.30350000       0.77170000
   133  C          0.72405000       0.13569000       0.18642900
   134  C          0.27595000       0.13569000       0.81357100
   135  H          0.79310000       0.24550000       0.17780000
   136  H          0.20690000       0.24550000       0.82220000
   137  C          0.56345000       0.79459000       0.18184900
   138  C          0.43655000       0.79459000       0.81815100
   139  H          0.51810000       0.66370000       0.16990000
   140  H          0.48190000       0.66370000       0.83010000
   141  O          0.07553000       0.87306000       0.22542600
   142  O          0.92447000       0.87306000       0.77457400
   143  N          0.09543000       0.48077000       0.33154700
   144  N          0.90457000       0.48077000       0.66845300
   145  N          0.09024000       0.44566000       0.21514700
   146  N          0.90976000       0.44566000       0.78485300
   147  H          0.08680000       0.47040000       0.19540000
   148  H          0.91320000       0.47040000       0.80460000
   149  H          0.09700000       0.29080000       0.22250000
   150  H          0.90300000       0.29080000       0.77750000
   151  C          0.17464000       0.34248000       0.31256800
   152  C          0.82536000       0.34248000       0.68743200
   153  H          0.23380000       0.20900000       0.32090000
   154  H          0.76620000       0.20900000       0.67910000
   155  C          0.17444000       0.38488000       0.28095800
   156  C          0.82556000       0.38488000       0.71904200
   157  H          0.23080000       0.27910000       0.26860000
   158  H          0.76920000       0.27910000       0.73140000
   159  C          0.09134000       0.58247000       0.26804800
   160  C          0.90866000       0.58247000       0.73195200
   161  C          0.08514000       0.64628000       0.23424800
   162  C          0.91486000       0.64628000       0.76575200
   163  C          0.01075000       0.73359000       0.28768900
   164  C         -0.01075000       0.73359000       0.71231100
   165  H          0.95450000       0.87320000       0.28000000
   166  H          0.04550000       0.87320000       0.72000000
   167  C          0.01456000       0.67501000       0.31874100
   168  C         -0.01456000       0.67501000       0.68125900
   169  H          0.95770000       0.77600000       0.33160000
   170  H          0.04230000       0.77600000       0.66840000
   171  O          0.97537000       0.49625000       0.15363500
   172  O          0.02463000       0.49625000       0.84636500
   173  N          0.29683000       0.19916000       0.11306700
   174  N          0.70317000       0.19916000       0.88693300
   175  N          0.90427000       0.49186000       0.10291600
   176  N          0.09573000       0.49186000       0.89708400
   177  H          0.84220000       0.36660000       0.10510000
   178  H          0.15780000       0.36660000       0.89490000
   179  H          0.91440000       0.55830000       0.08490000
   180  H          0.08560000       0.55830000       0.91510000
   181  C          0.23484000       0.06997000       0.08924800
   182  C          0.76516000       0.06997000       0.91075200
   183  H          0.26030000       0.11710000       0.06940000
   184  H          0.73970000       0.11710000       0.93060000
   185  C          0.09323000       0.80047000       0.12157700
   186  C          0.90677000       0.80047000       0.87842300
   187  C         -0.01524000       0.58287000       0.12737800
   188  C          0.01524000       0.58287000       0.87262200
   189  C          0.15604000       0.93527000       0.14650800
   190  C          0.84396000       0.93527000       0.85349200
   191  H          0.13060000       0.89530000       0.16650000
   192  H          0.86940000       0.89530000       0.83350000
   193  C          0.25724000       0.13088000       0.14126900
   194  C          0.74276000       0.13088000       0.85873100
   195  H          0.30000000       0.21940000       0.15830000
   196  H          0.70000000       0.21940000       0.84170000
   197  C          0.13434000       0.86887000       0.09212800
   198  C          0.86566000       0.86887000       0.90787200
   199  H          0.09510000       0.78110000       0.07470000
   200  H          0.90490000       0.78110000       0.92530000
