data_OXOYAC
_symmetry_space_group_name_H-M    'P1'
_symmetry_Int_Tables_number       1
loop_
_symmetry_equiv_pos_site_id
_symmetry_equiv_pos_as_xyz
1 x,y,z
_cell_length_a                   9.98813
_cell_length_b                   11.08714
_cell_length_c                   17.18356
_cell_angle_alpha                82.8462
_cell_angle_beta                 74.4072
_cell_angle_gamma                85.7792
loop_
_atom_site_label
_atom_site_type_symbol
_atom_site_fract_x
_atom_site_fract_y
_atom_site_fract_z
     1  S          0.08821800       0.31263600       0.22715400
     2  S          0.91178200       0.68736400       0.77284600
     3  F          0.92996180       0.93460140       0.12958100
     4  F          0.07003820       0.06539860       0.87041900
     5  F          0.82341190       0.00994150       0.00366110
     6  F          0.17658810      -0.00994150      -0.00366110
     7  F          0.74541180       0.84489150       0.92107900
     8  F          0.25458820       0.15510850       0.07892100
     9  F          0.77513190       0.60281150       0.96836900
    10  F          0.22486810       0.39718850       0.03163100
    11  F          0.88646180       0.52557140       0.08986100
    12  F          0.11353820       0.47442860       0.91013900
    13  F          0.05137170       0.66435150       0.34835100
    14  F          0.94862830       0.33564850       0.65164900
    15  F          0.87992000       0.69433190       0.49358110
    16  F          0.12008000       0.30566810       0.50641890
    17  F          0.61082000       0.76942000       0.50771110
    18  F          0.38918000       0.23058000       0.49228890
    19  F          0.51591180       0.81472190       0.37140120
    20  F          0.48408820       0.18527810       0.62859880
    21  F          0.68099170       0.78644160       0.22754100
    22  F          0.31900830       0.21355840       0.77245900
    23  F          0.07420170       0.89806150       0.27018100
    24  F          0.92579830       0.10193850       0.72981900
    25  F          0.31406180       0.00300160       0.22225110
    26  F          0.68593820      -0.00300160       0.77774890
    27  F          0.51424180       0.93738170       0.08990120
    28  F          0.48575820       0.06261830       0.91009880
    29  F          0.46253180       0.75908170       0.00681110
    30  F          0.53746820       0.24091830      -0.00681110
    31  F          0.22324170       0.65084150       0.05318100
    32  F          0.77675830       0.34915850       0.94681900
    33  C          0.03023000       0.54452000       0.19908170
    34  C          0.96977000       0.45548000       0.80091830
    35  H          0.09900000       0.52210000       0.15250000
    36  H          0.90100000       0.47790000       0.84750000
    37  C          0.99053000       0.45062000       0.25550170
    38  C          0.00947000       0.54938000       0.74449830
    39  C          0.87843000       0.43822000       0.33253170
    40  C          0.12157000       0.56178000       0.66746830
    41  C          0.74033000       0.44333000       0.32932000
    42  C          0.25967000       0.55667000       0.67068000
    43  H          0.71830000       0.45870000       0.27850000
    44  H          0.28170000       0.54130000       0.72150000
    45  C          0.63553000       0.42583000       0.40042000
    46  C          0.36447000       0.57417000       0.59958000
    47  H          0.54130000       0.42990000       0.39800000
    48  H          0.45870000       0.57010000       0.60200000
    49  C          0.66544000       0.40263000       0.47462000
    50  C          0.33456000       0.59737000       0.52538000
    51  H          0.59230000       0.39030000       0.52300000
    52  H          0.40770000       0.60970000       0.47700000
    53  C          0.80174000       0.39733000       0.47862000
    54  C          0.19826000       0.60267000       0.52138000
    55  H          0.82270000       0.38080000       0.52970000
    56  H          0.17730000       0.61920000       0.47030000
    57  C          0.90793000       0.41613000       0.40800180
    58  C          0.09207000       0.58387000       0.59199820
    59  H          0.00160000       0.41390000       0.41100000
    60  H         -0.00160000       0.58610000       0.58900000
    61  C          0.22713000       0.29503000       0.27952000
    62  C          0.77287000       0.70497000       0.72048000
    63  H          0.18680000       0.29880000       0.33850000
    64  H          0.81320000       0.70120000       0.66150000
    65  H          0.27670000       0.21500000       0.27170000
    66  H          0.72330000       0.78500000       0.72830000
    67  C          0.32703000       0.39513000       0.24553190
    68  C          0.67297000       0.60487000       0.75446810
    69  C          0.33203000       0.48863000       0.29042000
    70  C          0.66797000       0.51137000       0.70958000
    71  H          0.27200000       0.48980000       0.34360000
    72  H          0.72800000       0.51020000       0.65640000
    73  C          0.42433000       0.58133000       0.25832000
    74  C          0.57567000       0.41867000       0.74168000
    75  H          0.42680000       0.64580000       0.28940000
    76  H          0.57320000       0.35420000       0.71060000
    77  C          0.51243000       0.57933000       0.18112000
    78  C          0.48757000       0.42067000       0.81888000
    79  H          0.57650000       0.64190000       0.15930000
    80  H          0.42350000       0.35810000       0.84070000
    81  C          0.50734000       0.48624000       0.13552000
    82  C          0.49266000       0.51376000       0.86448000
    83  H          0.56730000       0.48510000       0.08230000
    84  H          0.43270000       0.51490000       0.91770000
    85  C          0.41493000       0.39483000       0.16752000
    86  C          0.58507000       0.60517000       0.83248000
    87  H          0.41120000       0.33120000       0.13590000
    88  H          0.58880000       0.66880000       0.86410000
    89  C          0.98373000       0.18663000       0.28022000
    90  C          0.01627000       0.81337000       0.71978000
    91  H          0.04170000       0.11030000       0.27420000
    92  H          0.95830000       0.88970000       0.72580000
    93  H          0.95260000       0.19710000       0.33880000
    94  H          0.04740000       0.80290000       0.66120000
    95  C          0.85773000       0.17553000       0.24922000
    96  C          0.14227000       0.82447000       0.75078000
    97  C          0.74545000       0.11814000       0.30053000
    98  C          0.25455000       0.88186000       0.69947000
    99  H          0.74510000       0.09130000       0.35530000
   100  H          0.25490000       0.90870000       0.64470000
   101  C          0.62975000       0.09914000       0.27134000
   102  C          0.37025000       0.90086000       0.72866000
   103  H          0.55280000       0.05710000       0.30630000
   104  H          0.44720000       0.94290000       0.69370000
   105  C          0.62745000       0.13954000       0.19494000
   106  C          0.37255000       0.86046000       0.80506000
   107  H          0.54930000       0.12590000       0.17610000
   108  H          0.45070000       0.87410000       0.82390000
   109  C          0.73634000       0.20004000       0.14433000
   110  C          0.26366000       0.79996000       0.85567000
   111  H          0.73320000       0.23100000       0.09070000
   112  H          0.26680000       0.76900000       0.90930000
   113  C          0.85174000       0.21634000       0.17092000
   114  C          0.14826000       0.78366000       0.82908000
   115  H          0.92870000       0.25650000       0.13460000
   116  H          0.07130000       0.74350000       0.86540000
   117  C          0.91903000       0.72632000       0.11469160
   118  C          0.08097000       0.27368000       0.88530840
   119  C          0.89833000       0.84882000       0.08869170
   120  C          0.10167000       0.15118000       0.91130830
   121  C          0.84183000       0.88993000       0.02489180
   122  C          0.15817000       0.11007000       0.97510820
   123  C          0.80163000       0.80713000       0.98345830
   124  C          0.19837000       0.19287000       0.01654170
   125  C          0.81803000       0.68463000       0.00690160
   126  C          0.18197000       0.31537000      -0.00690160
   127  C          0.87643000       0.64772000       0.07080170
   128  C          0.12357000       0.35228000       0.92919830
   129  C          0.87853000       0.72362000       0.27850170
   130  C          0.12147000       0.27638000       0.72149830
   131  C          0.91893000       0.70403000       0.35038180
   132  C          0.08107000       0.29597000       0.64961820
   133  C          0.83333000       0.71863000       0.42635180
   134  C          0.16667000       0.28137000       0.57364820
   135  C          0.69673000       0.75673000       0.43412190
   136  C          0.30327000       0.24327000       0.56587810
   137  C          0.65013000       0.77883000       0.36522000
   138  C          0.34987000       0.22117000       0.63478000
   139  C          0.73973000       0.76293000       0.29036180
   140  C          0.26027000       0.23707000       0.70963820
   141  C          0.13603000       0.76112000       0.16789170
   142  C          0.86397000       0.23888000       0.83210830
   143  C          0.16833000       0.85392000       0.20598170
   144  C          0.83167000       0.14608000       0.79401830
   145  C          0.29263000       0.91223000       0.18151180
   146  C          0.70737000       0.08777000       0.81848820
   147  C          0.39373000       0.88083000       0.11454190
   148  C          0.60627000       0.11917000       0.88545810
   149  C          0.36663000       0.79133000       0.07322180
   150  C          0.63337000       0.20867000       0.92677820
   151  C          0.24093000       0.73533000       0.09993170
   152  C          0.75907000       0.26467000       0.90006830
   153  B          0.98633000       0.68913000       0.19292000
   154  B          0.01367000       0.31087000       0.80708000
   155  C          0.94497000       0.01759000       0.51466000
   156  C          0.05503000       0.98241000       0.48534000
   157  H          0.93500000       0.07870000       0.46910000
   158  H          0.06500000       0.92130000       0.53090000
   159  H          0.96850000       0.06630000       0.55310000
   160  H          0.03150000       0.93370000       0.44690000
   161  C          0.79227000       0.00737000       0.55654000
   162  C          0.20773000      -0.00737000       0.44346000
   163  H          0.77400000       0.92210000       0.58020000
   164  H          0.22600000       0.07790000       0.41980000
   165  H          0.76660000       0.05940000       0.60150000
   166  H          0.23340000       0.94060000       0.39850000
   167  C          0.70711900       0.04361900       0.50091200
   168  C          0.29288100       0.95638100       0.49908800
   169  H          0.60880000       0.03460000       0.52990000
   170  H          0.39120000       0.96540000       0.47010000
   171  H          0.73210000      -0.00790000       0.45640000
   172  H          0.26790000       0.00790000       0.54360000
   173  H          0.72260000       0.12880000       0.47890000
   174  H          0.27740000       0.87120000       0.52110000
