data_OYUMIG
_symmetry_space_group_name_H-M    'P1'
_symmetry_Int_Tables_number       1
loop_
_symmetry_equiv_pos_site_id
_symmetry_equiv_pos_as_xyz
1 x,y,z
_cell_length_a                   10.3822
_cell_length_b                   12.8062
_cell_length_c                   13.2572
_cell_angle_alpha                102.241
_cell_angle_beta                 112.361
_cell_angle_gamma                108.311
loop_
_atom_site_label
_atom_site_type_symbol
_atom_site_fract_x
_atom_site_fract_y
_atom_site_fract_z
     1  B          0.45920000       0.98311900       0.71701500
     2  H          0.46900000       0.04320000       0.66930000
     3  B          0.56530000       0.90520000       0.73301700
     4  H          0.64510000       0.91410000       0.69670000
     5  B          0.36420000       0.82921800       0.64301600
     6  H          0.31090000       0.78900000       0.54660000
     7  B          0.60330000       0.01620000       0.85491600
     8  H          0.70900000       0.10020000       0.89820000
     9  B          0.44120000       0.02221400       0.84571700
    10  H          0.40210000       0.08070000       0.88730000
    11  B          0.27120000       0.89951600       0.70021800
    12  H          0.15930000       0.90380000       0.67670000
    13  B          0.26320000       0.74881700       0.69671700
    14  H          0.21520000       0.70730000       0.74700000
    15  B          0.45820000       0.76551700       0.72691600
    16  H          0.46540000       0.68070000       0.72060000
    17  B          0.61620000       0.89020000       0.86581700
    18  H          0.69450000       0.86070000       0.92140000
    19  B          0.54951900       0.97161500       0.95761300
    20  H          0.49780000       0.93200000       0.00700000
    21  H          0.32310000       0.94480000       0.83770000
    22  H          0.53013000       0.77310000       0.86090000
    23  N          0.11901500       0.64041200       0.59701100
    24  H          0.12090000       0.61650000       0.53200000
    25  N          0.97338500       0.60961200       0.69031300
    26  H          0.04580000       0.67430000       0.74800000
    27  N          0.67561400       0.06221100       0.07799000
    28  H          0.76440000       0.10180000       0.08460000
    29  N          0.52321400       0.03181200       0.16841000
    30  H          0.44550000       0.97920000       0.10250000
    31  C          0.86368200       0.47221500       0.48681500
    32  H          0.77860000       0.43390000       0.49940000
    33  H          0.90340000       0.41700000       0.46740000
    34  H          0.82870000       0.49860000       0.42330000
    35  C          0.84458100       0.54651600       0.70491400
    36  C          0.70548200       0.54741700       0.65281500
    37  H          0.69480000       0.59780000       0.61230000
    38  C          0.58280000       0.47841800       0.65721400
    39  H          0.48390000       0.46770000       0.60710000
    40  C          0.60280000       0.42371700       0.73591600
    41  H          0.52240000       0.38720000       0.75010000
    42  C          0.73980000       0.42321900       0.79220000
    43  H          0.75280000       0.38210000       0.84270000
    44  C          0.86380000       0.48341900       0.77671900
    45  H          0.95880000       0.48080000       0.81420000
    46  C          0.80020000       0.17341700       0.28691300
    47  H          0.77250000       0.18670000       0.34830000
    48  H          0.84190000       0.24700000       0.27780000
    49  H          0.87640000       0.14330000       0.30740000
    50  C          0.50551900       0.06131400       0.27111300
    51  C          0.47520000       0.15691700       0.30161600
    52  H          0.45690000       0.19820000       0.25180000
    53  C          0.46931800       0.19241600       0.40691500
    54  H          0.46010000       0.26160000       0.43310000
    55  C          0.47820000       0.12141700       0.46791400
    56  H          0.46830000       0.14180000       0.53530000
    57  C          0.49920000       0.02651600       0.44151300
    58  H          0.50850000       0.98290000       0.48960000
    59  C          0.50820000      -0.00738500       0.33661400
    60  H          0.51600000       0.92230000       0.31200000
    61  C         -0.00891800       0.57861400       0.59871400
    62  C          0.66071600       0.08601300       0.17491300
    63  B          0.29620000       0.51931700       0.36931400
    64  H          0.34700000       0.55770000       0.46560000
    65  B          0.05820000       0.34001800       0.16241500
    66  H          0.94930000       0.25820000       0.12000000
    67  B          0.09820000       0.45420000       0.28991700
    68  H          0.02120000       0.44850000       0.32910000
    69  B          0.21330000       0.36411900       0.30041800
    70  H          0.20990000       0.30180000       0.34610000
    71  B          0.22520000       0.32581900       0.17041400
    72  H          0.26200000       0.26660000       0.12790000
    73  B          0.10720000       0.38251600       0.07091400
    74  H          0.15990000       0.42670000       0.02440000
    75  B          0.04120000       0.46851900       0.14791400
    76  H          0.96420000       0.49900000       0.09190000
    77  B          0.21030000       0.59120000       0.29381800
    78  H          0.20910000       0.67810000       0.30500000
    79  B          0.40220000       0.59941600       0.31391600
    80  H          0.45120000       0.63580000       0.26200000
    81  B          0.38131900       0.45081800       0.30971400
    82  H          0.49400000       0.44940000       0.33170000
    83  H          0.17680000       0.56260000       0.19260000
    84  H          0.35513000       0.42810000       0.22411000
    85  N         -0.00951300       0.29261100       0.93899000
    86  H          0.89910000       0.25310000       0.92790000
    87  N          0.13351400       0.31621100       0.84701000
    88  H          0.21040000       0.36920000       0.91300000
    89  N          0.54631600       0.71211100       0.41941000
    90  H          0.54100000       0.73430000       0.48300000
    91  N          0.68561600       0.74291200       0.32471000
    92  H          0.61190000       0.67970000       0.26560000
    93  C          0.86648200       0.18131500       0.72931400
    94  H          0.77560000       0.15240000       0.73800000
    95  H          0.88550000       0.11580000       0.69950000
    96  H          0.85110000       0.22130000       0.67520000
    97  C          0.16221500       0.29101400       0.74721100
    98  C          0.17920000       0.18961500       0.71161400
    99  H          0.17490000       0.13850000       0.75200000
   100  C          0.20020000       0.16511700       0.61501600
   101  H          0.22360000       0.10180000       0.59560000
   102  C          0.18820000       0.23231900       0.54571600
   103  H          0.19250000       0.21070000       0.47590000
   104  C          0.16881800       0.33551700       0.58541400
   105  H          0.16660000       0.38500000       0.54320000
   106  C          0.15341700       0.36361500       0.68371300
   107  H          0.13740000       0.43000000       0.70760000
   108  C          0.80020000       0.88191800       0.52241600
   109  H          0.77660000       0.89620000       0.58580000
   110  H          0.81580000       0.94890000       0.49900000
   111  H          0.89300000       0.87060000       0.54810000
   112  C          0.81620000       0.80731400       0.31281500
   113  C          0.95720000       0.80931800       0.37741700
   114  H          0.97370000       0.77560000       0.43410000
   115  C          0.07920000       0.86661900       0.35231900
   116  H          0.16910000       0.85680000       0.38220000
   117  C          0.06520000       0.93401900       0.28661700
   118  H          0.15050000      -0.01560000       0.28500000
   119  C          0.91930000       0.92520000       0.22191500
   120  H          0.90260000       0.95990000       0.16630000
   121  C          0.80020000       0.86801600       0.23671300
   122  H          0.70520000       0.86870000       0.19570000
   123  C          0.00220000       0.26581400       0.84581200
   124  C          0.67020000       0.77371500       0.42071300
   125  C          0.60940000       0.38530000       0.13230000
   126  H          0.67230000       0.34550000       0.12860000
   127  H          0.51430000       0.33120000       0.12400000
   128  H          0.66310000       0.45160000       0.20540000
   129  C          0.57440000       0.42630000       0.04020000
   130  H          0.66920000       0.46760000       0.03810000
   131  H          0.50550000       0.35860000       0.96550000
   132  O          0.50720000       0.50061900       0.05001900
   133  C          0.52230000       0.57830000       0.98320000
   134  H          0.49200000       0.53180000       0.90270000
   135  H          0.62690000       0.63890000       0.02000000
   136  C          0.41030000       0.63211400       0.98471500
   137  H          0.41280000       0.68490000       0.94290000
   138  H          0.43990000       0.67560000       0.06470000
   139  H          0.30640000       0.57000000       0.94750000
   140  C          0.15430000       0.74830000       0.05320000
   141  H          0.13160000       0.72530000       0.11170000
   142  H          0.26080000       0.80330000       0.08980000
   143  H          0.13260000       0.67910000      -0.00730000
   144  C          0.06230000       0.80120000       0.00520000
   145  H          0.95380000       0.74480000       0.95490000
   146  H          0.07110000       0.86660000       0.06430000
   147  O          0.12930000       0.83820000       0.94420000
   148  C          0.01140000       0.87620000       0.86330000
   149  H          0.00050000       0.85650000       0.78510000
   150  H          0.90960000       0.83950000       0.85730000
   151  C          0.07840000      -0.00570000       0.92230000
   152  H          0.01610000       0.02820000       0.87880000
   153  H          0.17930000       0.02810000       0.92910000
   154  H          0.08620000       0.01150000      -0.00150000
