data_OZEBUT
_symmetry_space_group_name_H-M    'P1'
_symmetry_Int_Tables_number       1
loop_
_symmetry_equiv_pos_site_id
_symmetry_equiv_pos_as_xyz
1 x,y,z
_cell_length_a                   7.99337
_cell_length_b                   10.0501
_cell_length_c                   15.074514
_cell_angle_alpha                80.1243
_cell_angle_beta                 78.6603
_cell_angle_gamma                83.9533
loop_
_atom_site_label
_atom_site_type_symbol
_atom_site_fract_x
_atom_site_fract_y
_atom_site_fract_z
     1  I          0.81180286       0.04728312       0.90307580
     2  I          0.18819714       0.95271688       0.09692420
     3  I          0.37494714       0.37555412       0.37213380
     4  I          0.62505286       0.62444588       0.62786620
     5  F          0.41179140       0.69025120       0.37613700
     6  F          0.58820860       0.30974880       0.62386300
     7  F          0.28204140       0.85190110       0.50022700
     8  F          0.71795860       0.14809890       0.49977300
     9  F          0.00924140       0.48659110       0.69347700
    10  F         -0.00924140       0.51340890       0.30652300
    11  F          0.13186150       0.32585110       0.56854800
    12  F          0.86813850       0.67414890       0.43145200
    13  F          0.07507140       0.78199110       0.90756700
    14  F          0.92492860       0.21800890       0.09243300
    15  F          0.21096140       0.62621110       0.78092700
    16  F          0.78903860       0.37378890       0.21907300
    17  F          0.91780860       0.90733110       0.56769700
    18  F          0.08219140       0.09266890       0.43230300
    19  F          0.79344860       0.07046110       0.69142700
    20  F          0.20655140       0.92953890       0.30857300
    21  C          0.27612000       0.50365180       0.46838120
    22  C          0.72388000       0.49634820       0.53161880
    23  C          0.30952000       0.63866190       0.45347120
    24  C          0.69048000       0.36133810       0.54652880
    25  C          0.24212000       0.72269180       0.51748120
    26  C          0.75788000       0.27730820       0.48251880
    27  C          0.14042000       0.67455180       0.60050120
    28  C          0.85958000       0.32544820       0.39949880
    29  C          0.10802000       0.53892180       0.61502120
    30  C          0.89198000       0.46107820       0.38497880
    31  C          0.17232000       0.45550180       0.55070120
    32  C          0.82768000       0.54449820       0.44929880
    33  C          0.93108000       0.93172180       0.80290120
    34  C          0.06892000       0.06827820       0.19709880
    35  C          0.03872000       0.81707180       0.82310120
    36  C          0.96128000       0.18292820       0.17689880
    37  C          0.10662000       0.73567180       0.75805120
    38  C          0.89338000       0.26432820       0.24194880
    39  C          0.07032000       0.76318180       0.66988120
    40  C          0.92968000       0.23681820       0.33011880
    41  C          0.96228000       0.87800180       0.65046110
    42  C          0.03772000       0.12199820       0.34953890
    43  C          0.89598000       0.96128170       0.71495120
    44  C          0.10402000       0.03871830       0.28504880
    45  N          0.54437190       0.21442160       0.02065100
    46  N          0.45562810       0.78557840       0.97934900
    47  N          0.49995190       0.15483150       0.26687100
    48  N          0.50004810       0.84516850       0.73312900
    49  C          0.47242000       0.22603180       0.10819120
    50  C          0.52758000       0.77396820       0.89180880
    51  C          0.48382000       0.30206190       0.95499880
    52  C          0.51618000       0.69793810       0.04500120
    53  H          0.53212000       0.29429190       0.89310880
    54  H          0.46788000       0.70570810       0.10689120
    55  C          0.35532000       0.40339190       0.97126880
    56  C          0.64468000       0.59660810       0.02873120
    57  H          0.31762000       0.46265190       0.92166880
    58  H          0.68238000       0.53734810       0.07833120
    59  C          0.28202000       0.41725180       0.06128120
    60  C          0.71798000       0.58274820       0.93871880
    61  C          0.34272000       0.32539180       0.13034120
    62  C          0.65728000       0.67460820       0.86965880
    63  H          0.29552000       0.33058180       0.19272120
    64  H          0.70448000       0.66941820       0.80727880
    65  C          0.14412000       0.52652000       0.08347130
    66  C          0.85588000       0.47348000       0.91652870
    67  H          0.03172000       0.49075000       0.09181000
    68  H          0.96828000       0.50925000       0.90819000
    69  H          0.15641200       0.55731100       0.14006000
    70  H          0.84358800       0.44268900       0.85994000
    71  H          0.15411200       0.60297000       0.03315000
    72  H          0.84588800       0.39703000       0.96685000
    73  C          0.53452000       0.12460180       0.18119120
    74  C          0.46548000       0.87539820       0.81880880
    75  C          0.55312000       0.06166190       0.33296130
    76  C          0.44688000       0.93833810       0.66703870
    77  H          0.52882000       0.08128190       0.39383130
    78  H          0.47118000       0.91871810       0.60616870
    79  C          0.64082000       0.93937810       0.31774130
    80  C          0.35918000       0.06062190       0.68225870
    81  H          0.67722000       0.87820810       0.36688130
    82  H          0.32278000       0.12179190       0.63311870
    83  C          0.67512000       0.90674820       0.22941130
    84  C          0.32488000       0.09325180       0.77058870
    85  C          0.61942000       0.00185180       0.16090120
    86  C          0.38058000      -0.00185180       0.83909880
    87  H          0.63912000       0.98316820       0.09987120
    88  H          0.36088000       0.01683180       0.90012880
    89  C          0.76603000       0.77323810       0.20994140
    90  C          0.23397000       0.22676190       0.79005860
    91  H          0.69088000       0.70027000       0.23719000
    92  H          0.30912000       0.29973000       0.76281000
    93  H          0.79631800       0.77444000       0.14358140
    94  H          0.20368200       0.22556000       0.85641860
    95  H          0.87031100       0.75783000       0.23649000
    96  H          0.12968900       0.24217000       0.76351000
