data_OZEBED
_symmetry_space_group_name_H-M    'P1'
_symmetry_Int_Tables_number       1
loop_
_symmetry_equiv_pos_site_id
_symmetry_equiv_pos_as_xyz
1 x,y,z
_cell_length_a                   13.85706
_cell_length_b                   13.76386
_cell_length_c                   11.50415
_cell_angle_alpha                90.0
_cell_angle_beta                 104.7372
_cell_angle_gamma                90.0
loop_
_atom_site_label
_atom_site_type_symbol
_atom_site_fract_x
_atom_site_fract_y
_atom_site_fract_z
     1  I          0.42248510       0.73276010       0.37581112
     2  I          0.57751490       0.73276010       0.12418888
     3  I          0.92248510       0.23276010       0.37581112
     4  I          0.07751490       0.23276010       0.12418888
     5  I          0.57751490       0.26723990       0.62418888
     6  I          0.42248510       0.26723990       0.87581112
     7  I          0.07751490       0.76723990       0.62418888
     8  I          0.92248510       0.76723990       0.87581112
     9  F          0.06519900       0.88881800       0.35696110
    10  F          0.93480100       0.88881800       0.14303890
    11  F          0.56519900       0.38881800       0.35696110
    12  F          0.43480100       0.38881800       0.14303890
    13  F          0.93480100       0.11118200       0.64303890
    14  F          0.06519900       0.11118200       0.85696110
    15  F          0.43480100       0.61118200       0.64303890
    16  F          0.56519900       0.61118200       0.85696110
    17  F          0.05888900       0.58289900       0.16936110
    18  F          0.94111100       0.58289900       0.33063890
    19  F          0.55888900       0.08289900       0.16936110
    20  F          0.44111100       0.08289900       0.33063890
    21  F          0.94111100       0.41710100       0.83063890
    22  F          0.05888900       0.41710100       0.66936110
    23  F          0.44111100       0.91710100       0.83063890
    24  F          0.55888900       0.91710100       0.66936110
    25  F          0.25773900       0.57971900       0.22798120
    26  F          0.74226100       0.57971900       0.27201880
    27  F          0.75773900       0.07971900       0.22798120
    28  F          0.24226100       0.07971900       0.27201880
    29  F          0.74226100       0.42028100       0.77201880
    30  F          0.25773900       0.42028100       0.72798120
    31  F          0.24226100       0.92028100       0.77201880
    32  F          0.75773900       0.92028100       0.72798120
    33  F          0.26306900       0.88671900       0.41484120
    34  F          0.73693100       0.88671900       0.08515880
    35  F          0.76306900       0.38671900       0.41484120
    36  F          0.23693100       0.38671900       0.08515880
    37  F          0.73693100       0.11328100       0.58515880
    38  F          0.26306900       0.11328100       0.91484120
    39  F          0.23693100       0.61328100       0.58515880
    40  F          0.76306900       0.61328100       0.91484120
    41  C          0.26712160       0.73268150       0.32422000
    42  C          0.73287840       0.73268150       0.17578000
    43  C          0.76712160       0.23268150       0.32422000
    44  C          0.23287840       0.23268150       0.17578000
    45  C          0.73287840       0.26731850       0.67578000
    46  C          0.26712160       0.26731850       0.82422000
    47  C          0.23287840       0.76731850       0.67578000
    48  C          0.76712160       0.76731850       0.82422000
    49  C          0.11118150       0.81172140       0.32395180
    50  C          0.88881850       0.81172140       0.17604820
    51  C          0.61118150       0.31172140       0.32395180
    52  C          0.38881850       0.31172140       0.17604820
    53  C          0.88881850       0.18827860       0.67604820
    54  C          0.11118150       0.18827860       0.82395180
    55  C          0.38881850       0.68827860       0.67604820
    56  C          0.61118150       0.68827860       0.82395180
    57  C          0.05505160       0.73485140       0.26409190
    58  C          0.94494840       0.73485140       0.23590810
    59  C          0.55505160       0.23485140       0.26409190
    60  C          0.44494840       0.23485140       0.23590810
    61  C          0.94494840       0.26514860       0.73590810
    62  C          0.05505160       0.26514860       0.76409190
    63  C          0.44494840       0.76514860       0.73590810
    64  C          0.55505160       0.76514860       0.76409190
    65  C          0.10856160       0.65770140       0.23242180
    66  C          0.89143840       0.65770140       0.26757820
    67  C          0.60856160       0.15770140       0.23242180
    68  C          0.39143840       0.15770140       0.26757820
    69  C          0.89143840       0.34229860       0.76757820
    70  C          0.10856160       0.34229860       0.73242180
    71  C          0.39143840       0.84229860       0.76757820
    72  C          0.60856160       0.84229860       0.73242180
    73  C          0.21406160       0.81073150       0.35413190
    74  C          0.78593840       0.81073150       0.14586810
    75  C          0.71406160       0.31073150       0.35413190
    76  C          0.28593840       0.31073150       0.14586810
    77  C          0.78593840       0.18926850       0.64586810
    78  C          0.21406160       0.18926850       0.85413190
    79  C          0.28593840       0.68926850       0.64586810
    80  C          0.71406160       0.68926850       0.85413190
    81  C          0.21126160       0.65659140       0.26139180
    82  C          0.78873840       0.65659140       0.23860820
    83  C          0.71126160       0.15659140       0.26139180
    84  C          0.28873840       0.15659140       0.23860820
    85  C          0.78873840       0.34340860       0.73860820
    86  C          0.21126160       0.34340860       0.76139180
    87  C          0.28873840       0.84340860       0.73860820
    88  C          0.71126160       0.84340860       0.76139180
    89  N          0.64632140       0.74693120       0.46838160
    90  N          0.35367860       0.74693120       0.03161840
    91  N          0.14632140       0.24693120       0.46838160
    92  N          0.85367860       0.24693120       0.03161840
    93  N          0.35367860       0.25306880       0.53161840
    94  N          0.64632140       0.25306880       0.96838160
    95  N          0.85367860       0.75306880       0.53161840
    96  N          0.14632140       0.75306880       0.96838160
    97  C          0.69534160       0.82841150       0.45218180
    98  C          0.30465840       0.82841150       0.04781820
    99  C          0.19534160       0.32841150       0.45218180
   100  C          0.80465840       0.32841150       0.04781820
   101  C          0.30465840       0.17158850       0.54781820
   102  C          0.69534160       0.17158850       0.95218180
   103  C          0.80465840       0.67158850       0.54781820
   104  C          0.19534160       0.67158850       0.95218180
   105  C          0.70026160       0.66899150       0.51613180
   106  C          0.29973840       0.66899150       0.98386820
   107  C          0.20026160       0.16899150       0.51613180
   108  C          0.79973840       0.16899150       0.98386820
   109  C          0.29973840       0.33100850       0.48386820
   110  C          0.70026160       0.33100850       0.01613180
   111  C          0.79973840       0.83100850       0.48386820
   112  C          0.20026160       0.83100850       0.01613180
   113  C          0.64461170       0.57886160       0.53352000
   114  C          0.35538830       0.57886160       0.96648000
   115  C          0.14461170       0.07886160       0.53352000
   116  C          0.85538830       0.07886160       0.96648000
   117  C          0.35538830       0.42113840       0.46648000
   118  C          0.64461170       0.42113840       0.03352000
   119  C          0.85538830       0.92113840       0.46648000
   120  C          0.14461170       0.92113840       0.03352000
   121  C          0.63441170       0.91540160       0.39952000
   122  C          0.36558830       0.91540160       0.10048000
   123  C          0.13441170       0.41540160       0.39952000
   124  C          0.86558830       0.41540160       0.10048000
   125  C          0.36558830       0.08459840       0.60048000
   126  C          0.63441170       0.08459840       0.89952000
   127  C          0.86558830       0.58459840       0.60048000
   128  C          0.13441170       0.58459840       0.89952000
   129  H          0.66251000       0.56107000       0.61883000
   130  H          0.33749000       0.56107000       0.88117000
   131  H          0.16251000       0.06107000       0.61883000
   132  H          0.83749000       0.06107000       0.88117000
   133  H          0.33749000       0.43893000       0.38117000
   134  H          0.66251000       0.43893000       0.11883000
   135  H          0.83749000       0.93893000       0.38117000
   136  H          0.16251000       0.93893000       0.11883000
   137  H          0.57266170       0.59114000       0.50691400
   138  H          0.42733830       0.59114000      -0.00691400
   139  H          0.07266170       0.09114000       0.50691400
   140  H          0.92733830       0.09114000      -0.00691400
   141  H          0.42733830       0.40886000       0.49308600
   142  H          0.57266170       0.40886000       0.00691400
   143  H          0.92733830       0.90886000       0.49308600
   144  H          0.07266170       0.90886000       0.00691400
   145  H          0.66231000       0.52574000       0.48621200
   146  H          0.33769000       0.52574000       0.01378800
   147  H          0.16231000       0.02574000       0.48621200
   148  H          0.83769000       0.02574000       0.01378800
   149  H          0.33769000       0.47426000       0.51378800
   150  H          0.66231000       0.47426000       0.98621200
   151  H          0.83769000       0.97426000       0.51378800
   152  H          0.16231000       0.97426000       0.98621200
   153  H          0.64491000       0.92957000       0.32017000
   154  H          0.35509000       0.92957000       0.17983000
   155  H          0.14491000       0.42957000       0.32017000
   156  H          0.85509000       0.42957000       0.17983000
   157  H          0.35509000       0.07043000       0.67983000
   158  H          0.64491000       0.07043000       0.82017000
   159  H          0.85509000       0.57043000       0.67983000
   160  H          0.14491000       0.57043000       0.82017000
   161  H          0.56362000       0.90195000       0.39161400
   162  H          0.43638000       0.90195000       0.10838600
   163  H          0.06362000       0.40195000       0.39161400
   164  H          0.93638000       0.40195000       0.10838600
   165  H          0.43638000       0.09805000       0.60838600
   166  H          0.56362000       0.09805000       0.89161400
   167  H          0.93638000       0.59805000       0.60838600
   168  H          0.06362000       0.59805000       0.89161400
   169  H          0.65509000       0.97153000       0.45248000
   170  H          0.34491000       0.97153000       0.04752000
   171  H          0.15509000       0.47153000       0.45248000
   172  H          0.84491000       0.47153000       0.04752000
   173  H          0.34491000       0.02847000       0.54752000
   174  H          0.65509000       0.02847000       0.95248000
   175  H          0.84491000       0.52847000       0.54752000
   176  H          0.15509000       0.52847000       0.95248000
