data_OZECEE
_symmetry_space_group_name_H-M    'P1'
_symmetry_Int_Tables_number       1
loop_
_symmetry_equiv_pos_site_id
_symmetry_equiv_pos_as_xyz
1 x,y,z
_cell_length_a                   7.35985
_cell_length_b                   11.24848
_cell_length_c                   13.88191
_cell_angle_alpha                88.3083
_cell_angle_beta                 78.4032
_cell_angle_gamma                76.7822
loop_
_atom_site_label
_atom_site_type_symbol
_atom_site_fract_x
_atom_site_fract_y
_atom_site_fract_z
     1  Br         0.40765400       0.14571300       0.35389200
     2  Br         0.59234600       0.85428700       0.64610800
     3  Br         0.93427400       0.41365700       0.80445800
     4  Br         0.06572600       0.58634300       0.19554200
     5  F          0.62542000       0.16585150       0.14474130
     6  F          0.37458000       0.83414850       0.85525870
     7  F          0.75012000      -0.00290150      -0.00097120
     8  F          0.24988000       0.00290150       0.00097120
     9  F          0.52672000       0.70511850       0.21432120
    10  F          0.47328000       0.29488150       0.78567880
    11  F          0.39272000       0.87468850       0.35753120
    12  F          0.60728000       0.12531150       0.64246880
    13  F          0.02792000       0.77637850      -0.00056130
    14  F          0.97208000       0.22362150       0.00056130
    15  F          0.15672000       0.58694840       0.87200870
    16  F          0.84328000       0.41305160       0.12799130
    17  F          0.52872000       0.53600850       0.90103870
    18  F          0.47128000       0.46399150       0.09896130
    19  F          0.40342000       0.71706850       0.03580130
    20  F          0.59658000       0.28293150       0.96419870
    21  C          0.50214000       0.02543000       0.25382000
    22  C          0.49786000       0.97457000       0.74618000
    23  C          0.59634000       0.05263000       0.16232000
    24  C          0.40366000       0.94737000       0.83768000
    25  C          0.66364000       0.96537000       0.08812000
    26  C          0.33636000       0.03463000       0.91188000
    27  C          0.64174000       0.84597000       0.10212000
    28  C          0.35826000       0.15403000       0.89788000
    29  C          0.54964000       0.81947000       0.19492000
    30  C          0.45036000       0.18053000       0.80508000
    31  C          0.48094000       0.90607000       0.26932000
    32  C          0.51906000       0.09393000       0.73068000
    33  C          0.71264000       0.75078000       0.02352000
    34  C          0.28736000       0.24922000       0.97648000
    35  C          0.90294000       0.71597000       0.97718000
    36  C          0.09706000       0.28403000       0.02282000
    37  C          0.96924000       0.61927000       0.91108000
    38  C          0.03076000       0.38073000       0.08892000
    39  C          0.84654000       0.55447000       0.88618000
    40  C          0.15346000       0.44553000       0.11382000
    41  C          0.65444000       0.59227000       0.92698000
    42  C          0.34556000       0.40773000       0.07302000
    43  C          0.58984000       0.68667000      -0.00422000
    44  C          0.41016000       0.31333000       0.00422000
    45  N          0.28983000       0.35832000       0.48068190
    46  N          0.71017000       0.64168000       0.51931810
    47  N          0.01703000       0.17422000       0.71068190
    48  N          0.98297000       0.82578000       0.28931810
    49  C          0.18054000       0.73973000       0.55542000
    50  C          0.81946000       0.26027000       0.44458000
    51  H          0.19924000       0.79293000       0.50172000
    52  H          0.80076000       0.20707000       0.49828000
    53  C          0.12054000       0.79073000       0.64442000
    54  C          0.87946000       0.20927000       0.35558000
    55  H          0.10104000       0.73833000       0.69862000
    56  H          0.89896000       0.26167000       0.30138000
    57  C          0.22084000       0.60823000       0.53192000
    58  C          0.77916000       0.39177000       0.46808000
    59  C          0.21594000       0.57033000       0.43782000
    60  C          0.78406000       0.42967000       0.56218000
    61  H          0.19004000       0.62903000       0.38882000
    62  H          0.80996000       0.37097000       0.61118000
    63  C          0.24884000       0.44713000       0.41612000
    64  C          0.75116000       0.55287000       0.58388000
    65  H          0.24214000       0.42383000       0.35202000
    66  H          0.75786000       0.57617000       0.64798000
    67  C          0.29774000       0.39533000       0.57032000
    68  C          0.70226000       0.60467000       0.42968000
    69  H          0.32784000       0.33443000       0.61712000
    70  H          0.67216000       0.66557000       0.38288000
    71  C          0.26474000       0.51653000       0.59912000
    72  C          0.73526000       0.48347000       0.40088000
    73  H          0.27184000       0.53703000       0.66402000
    74  H          0.72816000       0.46297000       0.33598000
    75  C          0.08184000       0.92273000       0.66552000
    76  C          0.91816000       0.07727000       0.33448000
    77  C          0.13894000       0.00553000       0.59482000
    78  C          0.86106000      -0.00553000       0.40518000
    79  H          0.20114000       0.97793000       0.52992000
    80  H          0.79886000       0.02207000       0.47008000
    81  C          0.10374000       0.12793000       0.62072000
    82  C          0.89626000       0.87207000       0.37928000
    83  H          0.14344000       0.18253000       0.57172000
    84  H          0.85656000       0.81747000       0.42828000
    85  C          0.96176000       0.09533000       0.77812000
    86  C          0.03824000       0.90467000       0.22188000
    87  H          0.89996000       0.12553000       0.84242000
    88  H          0.10004000       0.87447000       0.15758000
    89  C         -0.00924000       0.97073000       0.75832000
    90  C          0.00924000       0.02927000       0.24168000
    91  H          0.94806000       0.91853000       0.80862000
    92  H          0.05194000       0.08147000       0.19138000
