data_OZEDOP
_symmetry_space_group_name_H-M    'P1'
_symmetry_Int_Tables_number       1
loop_
_symmetry_equiv_pos_site_id
_symmetry_equiv_pos_as_xyz
1 x,y,z
_cell_length_a                   8.27385
_cell_length_b                   6.98964
_cell_length_c                   34.560618
_cell_angle_alpha                90.0
_cell_angle_beta                 93.0062
_cell_angle_gamma                90.0
loop_
_atom_site_label
_atom_site_type_symbol
_atom_site_fract_x
_atom_site_fract_y
_atom_site_fract_z
     1  I          0.36938919       0.55105200       0.56576840
     2  I          0.63061081       0.05105200       0.93423160
     3  I          0.63061081       0.44894800       0.43423160
     4  I          0.36938919       0.94894800       0.06576840
     5  I          0.78469881       0.95059800       0.28900940
     6  I          0.21530119       0.45059800       0.21099060
     7  I          0.21530119       0.04940200       0.71099060
     8  I          0.78469881       0.54940200       0.78900940
     9  F          0.14853180       0.74074190       0.49840400
    10  F          0.85146820       0.24074190       0.00159600
    11  F          0.85146820       0.25925810       0.50159600
    12  F          0.14853180       0.75925810      -0.00159600
    13  F          0.02671170       0.61172000       0.43024400
    14  F          0.97328830       0.11172000       0.06975600
    15  F          0.97328830       0.38828000       0.56975600
    16  F          0.02671170       0.88828000       0.93024400
    17  F          0.27693170       0.01445190       0.45434400
    18  F          0.72306830       0.51445190       0.04565600
    19  F          0.72306830      -0.01445190       0.54565600
    20  F          0.27693170       0.48554810       0.95434400
    21  F          0.40242180       0.14372000       0.52232400
    22  F          0.59757820       0.64372000       0.97767600
    23  F          0.59757820       0.85628000       0.47767600
    24  F          0.40242180       0.35628000       0.02232400
    25  F          0.79411830       0.83238000       0.37871400
    26  F          0.20588170       0.33238000       0.12128600
    27  F          0.20588170       0.16762000       0.62128600
    28  F          0.79411830       0.66762000       0.87871400
    29  F          0.93970830      -0.01272190       0.44190400
    30  F          0.06029170       0.48727810       0.05809600
    31  F          0.06029170       0.01272190       0.55809600
    32  F          0.93970830       0.51272190       0.94190400
    33  F          0.16460170       0.46672000       0.36491400
    34  F          0.83539830       0.96672000       0.13508600
    35  F          0.83539830       0.53328000       0.63508600
    36  F          0.16460170       0.03328000       0.86491400
    37  F          0.00370170       0.32732000       0.30248400
    38  F         -0.00370170       0.82732000       0.19751600
    39  F         -0.00370170       0.67268000       0.69751600
    40  F          0.00370170       0.17268000       0.80248400
    41  C          0.28053000       0.44644000       0.51207700
    42  C          0.71947000       0.94644000       0.98792300
    43  C          0.71947000       0.55356000       0.48792300
    44  C          0.28053000       0.05356000       0.01207700
    45  C          0.18463000       0.56243000       0.48763700
    46  C          0.81537000       0.06243000       0.01236300
    47  C          0.81537000       0.43757000       0.51236300
    48  C          0.18463000       0.93757000       0.98763700
    49  C          0.12053000       0.49443000       0.45264700
    50  C          0.87947000      -0.00557000       0.04735300
    51  C          0.87947000       0.50557000       0.54735300
    52  C          0.12053000       0.00557000       0.95264700
    53  C          0.14443000       0.30733000       0.44089700
    54  C          0.85557000       0.80733000       0.05910300
    55  C          0.85557000       0.69267000       0.55910300
    56  C          0.14443000       0.19267000       0.94089700
    57  C          0.24283000       0.19373000       0.46521700
    58  C          0.75717000       0.69373000       0.03478300
    59  C          0.75717000       0.80627000       0.53478300
    60  C          0.24283000       0.30627000       0.96521700
    61  C          0.30873000       0.26134000       0.50010700
    62  C          0.69127000       0.76134000      -0.00010700
    63  C          0.69127000       0.73866000       0.49989300
    64  C          0.30873000       0.23866000       0.00010700
    65  C          0.89677000       0.07373000       0.33868700
    66  C          0.10323000       0.57373000       0.16131300
    67  C          0.10323000       0.92627000       0.66131300
    68  C          0.89677000       0.42627000       0.83868700
    69  C          0.88397000      -0.00933000       0.37476700
    70  C          0.11603000       0.49067000       0.12523300
    71  C          0.11603000       0.00933000       0.62523300
    72  C          0.88397000       0.50933000       0.87476700
    73  C          0.96197000       0.06803000       0.40738700
    74  C          0.03803000       0.56803000       0.09261300
    75  C          0.03803000       0.93197000       0.59261300
    76  C          0.96197000       0.43197000       0.90738700
    77  C          0.06003000       0.22883000       0.40540700
    78  C          0.93997000       0.72883000       0.09459300
    79  C          0.93997000       0.77117000       0.59459300
    80  C          0.06003000       0.27117000       0.90540700
    81  C          0.07043000       0.31163000       0.36916700
    82  C          0.92957000       0.81163000       0.13083300
    83  C          0.92957000       0.68837000       0.63083300
    84  C          0.07043000       0.18837000       0.86916700
    85  C         -0.01083000       0.23744000       0.33665700
    86  C          0.01083000       0.73744000       0.16334300
    87  C          0.01083000       0.76256000       0.66334300
    88  C         -0.01083000       0.26256000       0.83665700
    89  N          0.45892000       0.67313000       0.64398600
    90  N          0.54108000       0.17313000       0.85601400
    91  N          0.54108000       0.32687000       0.35601400
    92  N          0.45892000       0.82687000       0.14398600
    93  N          0.60392000       0.68453000       0.71959600
    94  N          0.39608000       0.18453000       0.78040400
    95  N          0.39608000       0.31547000       0.28040400
    96  N          0.60392000       0.81547000       0.21959600
    97  C          0.43993000       0.53554000       0.66908700
    98  C          0.56007000       0.03554000       0.83091300
    99  C          0.56007000       0.46446000       0.33091300
   100  C          0.43993000       0.96446000       0.16908700
   101  H          0.37493000       0.42844000       0.66155700
   102  H          0.62507000       0.92844000       0.83844300
   103  H          0.62507000       0.57156000       0.33844300
   104  H          0.37493000       0.07156000       0.16155700
   105  C          0.51293000       0.54104000       0.70704700
   106  C          0.48707000       0.04104000       0.79295300
   107  C          0.48707000       0.45896000       0.29295300
   108  C          0.51293000       0.95896000       0.20704700
   109  H          0.49553000       0.43714000       0.72406700
   110  H          0.50447000       0.93714000       0.77593300
   111  H          0.50447000       0.56286000       0.27593300
   112  H          0.49553000       0.06286000       0.22406700
   113  C          0.62373000       0.83203000       0.69428700
   114  C          0.37627000       0.33203000       0.80571300
   115  C          0.37627000       0.16797000       0.30571300
   116  C          0.62373000       0.66797000       0.19428700
   117  C          0.71783000      -0.00676000       0.70600700
   118  C          0.28217000       0.49324000       0.79399300
   119  C          0.28217000       0.00676000       0.29399300
   120  C          0.71783000       0.50676000       0.20600700
   121  H          0.76683000      -0.00066000       0.73145700
   122  H          0.23317000       0.49934000       0.76854300
   123  H          0.23317000       0.00066000       0.26854300
   124  H          0.76683000       0.50066000       0.23145700
   125  C          0.73793000       0.14064000       0.68042800
   126  C          0.26207000       0.64064000       0.81957200
   127  C          0.26207000       0.85936000       0.31957200
   128  C          0.73793000       0.35936000       0.18042800
   129  H          0.80163000       0.24824000       0.68824800
   130  H          0.19837000       0.74824000       0.81175200
   131  H          0.19837000       0.75176000       0.31175200
   132  H          0.80163000       0.25176000       0.18824800
   133  C          0.66483000       0.13364000       0.64259800
   134  C          0.33517000       0.63364000       0.85740200
   135  C          0.33517000       0.86636000       0.35740200
   136  C          0.66483000       0.36636000       0.14259800
   137  H          0.67943000       0.23704000       0.62528800
   138  H          0.32057000       0.73704000       0.87471200
   139  H          0.32057000       0.76296000       0.37471200
   140  H          0.67943000       0.26296000       0.12528800
   141  C          0.57313000       0.97974000       0.63059700
   142  C          0.42687000       0.47974000       0.86940300
   143  C          0.42687000       0.02026000       0.36940300
   144  C          0.57313000       0.52026000       0.13059700
   145  H          0.52463000       0.97644000       0.60506700
   146  H          0.47537000       0.47644000       0.89493300
   147  H          0.47537000       0.02356000       0.39493300
   148  H          0.52463000       0.52356000       0.10506700
   149  C          0.55083000       0.82613000       0.65618700
   150  C          0.44917000       0.32613000       0.84381300
   151  C          0.44917000       0.17387000       0.34381300
   152  C          0.55083000       0.67387000       0.15618700
