data_OZEDUV
_symmetry_space_group_name_H-M    'P1'
_symmetry_Int_Tables_number       1
loop_
_symmetry_equiv_pos_site_id
_symmetry_equiv_pos_as_xyz
1 x,y,z
_cell_length_a                   7.60924
_cell_length_b                   12.24737
_cell_length_c                   12.89008
_cell_angle_alpha                111.1152
_cell_angle_beta                 100.6642
_cell_angle_gamma                95.1142
loop_
_atom_site_label
_atom_site_type_symbol
_atom_site_fract_x
_atom_site_fract_y
_atom_site_fract_z
     1  Br         0.80272800       0.24718315       0.31797914
     2  Br         0.19727200       0.75281685       0.68202086
     3  Br         0.65291200       0.77642115       0.16177414
     4  Br         0.34708800       0.22357885       0.83822586
     5  F          0.18588160       0.22499100       0.42122900
     6  F          0.81411840       0.77500900       0.57877100
     7  F          0.39231140       0.34293100       0.63116900
     8  F          0.60768860       0.65706900       0.36883100
     9  F          0.91974860       0.55231900       0.73600900
    10  F          0.08025140       0.44768100       0.26399100
    11  F          0.71188860       0.43414100       0.52577900
    12  F          0.28811140       0.56585900       0.47422100
    13  F          0.72382140       0.71582100       0.92386900
    14  F          0.27617860       0.28417900       0.07613100
    15  F          0.51033140       0.58015100       0.72058800
    16  F          0.48966860       0.41984900       0.27941200
    17  F          0.07746140       0.47249100       0.90085900
    18  F          0.92253860       0.52750900       0.09914100
    19  F          0.28630150       0.61534100       0.10528900
    20  F          0.71369850       0.38465900       0.89471100
    21  C          0.94408000       0.32728150       0.46766140
    22  C          0.05592000       0.67271850       0.53233860
    23  C          0.11783000       0.30594160       0.49796150
    24  C          0.88217000       0.69405840       0.50203850
    25  C          0.22462000       0.36707160       0.60671150
    26  C          0.77538000       0.63292840       0.39328850
    27  C          0.16362000       0.45199150       0.69043140
    28  C          0.83638000       0.54800850       0.30956860
    29  C         -0.01302000       0.47090150       0.65974140
    30  C          0.01302000       0.52909850       0.34025860
    31  C          0.87928000       0.40997150       0.55071150
    32  C          0.12072000       0.59002850       0.44928850
    33  C          0.50902000       0.67073150       0.01924140
    34  C          0.49098000       0.32926850       0.98075860
    35  C          0.56382000       0.65715150       0.91976150
    36  C          0.43618000       0.34284850       0.08023850
    37  C          0.45352000       0.58568150       0.81447140
    38  C          0.54648000       0.41431850       0.18552860
    39  C          0.28532000       0.52349150       0.80403140
    40  C          0.71468000       0.47650850       0.19596860
    41  C          0.23472000       0.53445160       0.90544150
    42  C          0.76528000       0.46554840       0.09455850
    43  C          0.34312000       0.60705160       0.01067140
    44  C          0.65688000       0.39294840      -0.01067140
    45  N          0.57498000       0.10801130       0.09463120
    46  N          0.42502000       0.89198870       0.90536880
    47  C          0.41948000       0.04204150       0.08866140
    48  C          0.58052000       0.95795850       0.91133860
    49  C          0.32727000       0.08114160       0.17878150
    50  C          0.67273000       0.91885840       0.82121850
    51  H          0.37567000       0.15350160       0.24262150
    52  H          0.62433000       0.84649840       0.75737850
    53  C          0.16997000       0.01500170       0.17351160
    54  C          0.83003000      -0.01500170       0.82648840
    55  H          0.10957000       0.04163170       0.23405160
    56  H          0.89043000       0.95836830       0.76594840
    57  C          0.65658000       0.06751150       0.00719140
    58  C          0.34342000       0.93248850      -0.00719140
    59  C          0.82178000       0.13385160       0.00950150
    60  C          0.17822000       0.86614840      -0.00950150
    61  H          0.87378000       0.20628160       0.07250150
    62  H          0.12622000       0.79371840       0.92749850
    63  C          0.90537000       0.09351170       0.92141840
    64  C          0.09463000       0.90648830       0.07858160
    65  H          0.01533000       0.13838170       0.92339840
    66  H         -0.01533000       0.86161830       0.07660160
    67  N          0.89652000       0.94084130       0.38537120
    68  N          0.10348000       0.05915870       0.61462880
    69  C          0.83412000       0.02379150       0.46411140
    70  C          0.16588000       0.97620850       0.53588860
    71  C          0.06102000       0.91653150       0.41975140
    72  C          0.93898000       0.08346850       0.58024860
    73  C          0.13432000       0.82990160       0.33989150
    74  C          0.86568000       0.17009840       0.66010850
    75  H          0.06752000       0.79046160       0.26281150
    76  H          0.93248000       0.20953840       0.73718850
    77  C          0.29963000       0.80351160       0.37368150
    78  C          0.70037000       0.19648840       0.62631850
    79  H          0.34733000       0.74561160       0.31977150
    80  H          0.65267000       0.25438840       0.68022850
    81  C          0.40242000       0.86157160       0.48904150
    82  C          0.59758000       0.13842840       0.51095850
    83  H          0.51712000       0.84129160       0.51120150
    84  H          0.48288000       0.15870840       0.48879850
    85  C          0.33782000       0.94549160       0.56742150
    86  C          0.66218000       0.05450840       0.43257850
    87  H          0.40802000      -0.01610840       0.64378150
    88  H          0.59198000       0.01610840       0.35621850
