data_OZEGUX
_symmetry_space_group_name_H-M    'P1'
_symmetry_Int_Tables_number       1
loop_
_symmetry_equiv_pos_site_id
_symmetry_equiv_pos_as_xyz
1 x,y,z
_cell_length_a                   6.720201
_cell_length_b                   13.37452
_cell_length_c                   15.82923
_cell_angle_alpha                95.78899
_cell_angle_beta                 102.107511
_cell_angle_gamma                100.60581
loop_
_atom_site_label
_atom_site_type_symbol
_atom_site_fract_x
_atom_site_fract_y
_atom_site_fract_z
     1  C          0.40566190       0.66039100       0.53171800
     2  C          0.59433810       0.33960900       0.46828200
     3  C          0.62822000       0.59915100       0.44224900
     4  C          0.37178000       0.40084900       0.55775100
     5  N          0.55774190       0.69101900       0.60185800
     6  N          0.44225810       0.30898100       0.39814200
     7  N          0.21687190       0.67620110       0.53061900
     8  N          0.78312810       0.32379890       0.46938100
     9  N          0.43534170       0.61201900       0.45697800
    10  N          0.56465830       0.38798100       0.54302200
    11  N          0.61562000       0.55225110       0.36275900
    12  N          0.38438000       0.44774890       0.63724100
    13  O          0.79044150       0.63028800       0.49862700
    14  O          0.20955850       0.36971200       0.50137300
    15  H          0.33130000       0.59451400       0.41461200
    16  H          0.66870000       0.40548600       0.58538800
    17  H          0.68130000       0.67911500       0.59991300
    18  H          0.31870000       0.32088500       0.40008700
    19  H          0.52930000       0.72371400       0.64661200
    20  H          0.47070000       0.27628600       0.35338800
    21  H          0.11930000       0.65031500       0.48611300
    22  H          0.88070000       0.34968500       0.51388700
    23  H          0.18530000       0.70081600       0.57731400
    24  H          0.81470000       0.29918400       0.42268600
    25  H          0.72730000       0.54211500       0.35271200
    26  H          0.27270000       0.45788500       0.64728800
    27  H          0.49330000       0.52281400       0.32961200
    28  H          0.50670000       0.47718600       0.67038800
    29  C          0.66448190       0.91574900       0.56919800
    30  C          0.33551810       0.08425100       0.43080200
    31  C          0.87627190       0.86630100       0.46941800
    32  C          0.12372810       0.13369900       0.53058200
    33  N          0.82247170       0.94314900       0.63753700
    34  N          0.17752830       0.05685100       0.36246300
    35  N          0.47532170       0.92630900       0.57486800
    36  N          0.52467830       0.07369100       0.42513200
    37  N          0.68668160       0.87519800       0.49018700
    38  N          0.31331840       0.12480200       0.50981300
    39  N          0.85812000       0.82936100       0.38630800
    40  N          0.14188000       0.17063900       0.61369200
    41  O          0.04227140       0.89091800       0.52452600
    42  O          0.95772860       0.10908200       0.47547400
    43  H          0.57530000       0.85941200       0.45081100
    44  H          0.42470000       0.14058800       0.54918900
    45  H          0.94430000       0.93391400       0.63141200
    46  H          0.05570000       0.06608600       0.36858800
    47  H          0.79730000       0.97501400       0.68531200
    48  H          0.20270000       0.02498600       0.31468800
    49  H          0.36530000       0.90551300       0.53351200
    50  H          0.63470000       0.09448700       0.46648800
    51  H          0.44830000       0.94501500       0.62611300
    52  H          0.55170000       0.05498500       0.37388700
    53  H          0.96930000       0.82291400       0.37491200
    54  H          0.03070000       0.17708600       0.62508800
    55  H          0.74030000       0.81061300       0.34951200
    56  H          0.25970000       0.18938700       0.65048800
    57  C          0.35692000       0.62870100       0.03744900
    58  C          0.64308000       0.37129900       0.96255100
    59  C          0.57202000       0.61299100       0.93111900
    60  C          0.42798000       0.38700900       0.06888100
    61  N          0.51760190       0.64897100       0.10503800
    62  N          0.48239810       0.35102900       0.89496200
    63  N          0.16647190       0.62825110       0.04736900
    64  N          0.83352810       0.37174890       0.95263100
    65  N          0.38074170       0.60830900       0.95491700
    66  N          0.61925830       0.39169100       0.04508300
    67  N          0.55312000       0.60358100       0.84541800
    68  N          0.44688000       0.39641900       0.15458200
    69  O          0.73721140       0.62464800       0.98585600
    70  O          0.26278860       0.37535200       0.01414400
    71  H          0.27230000       0.58621300       0.91601100
    72  H          0.72770000       0.41378700       0.08398900
    73  H          0.64130000       0.64791400       0.09481200
    74  H          0.35870000       0.35208600       0.90518800
    75  H          0.50130000       0.67321500       0.15401300
    76  H          0.49870000       0.32678500       0.84598700
    77  H          0.06630000       0.61901400       0.00401300
    78  H          0.93370000       0.38098600      -0.00401300
    79  H          0.14530000       0.63051500       0.09761400
    80  H          0.85470000       0.36948500       0.90238600
    81  H          0.66030000       0.59971400       0.82621200
    82  H          0.33970000       0.40028600       0.17378800
    83  H          0.43530000       0.59961400       0.80961200
    84  H          0.56470000       0.40038600       0.19038800
    85  C          0.65042190       0.89257100       0.06527900
    86  C          0.34957810       0.10742900       0.93472100
    87  C          0.87415190       0.86795100       0.96372900
    88  C          0.12584810       0.13204900       0.03627100
    89  N          0.80343180       0.90635100       0.13513800
    90  N          0.19656820       0.09364900       0.86486200
    91  N          0.46004180       0.89933100       0.07202900
    92  N          0.53995820       0.10066900       0.92797100
    93  N          0.67983170       0.86952900       0.98361700
    94  N          0.32016830       0.13047100       0.01638300
    95  N          0.86512000       0.84793110       0.87892800
    96  N          0.13488000       0.15206890       0.12107200
    97  O          0.03513140       0.88381800       0.02113600
    98  O          0.96486860       0.11618200       0.97886400
    99  H          0.57030000       0.86321300       0.94281200
   100  H          0.42970000       0.13678700       0.05718800
   101  H          0.92530000       0.89991400       0.12761200
   102  H          0.07470000       0.10008600       0.87238800
   103  H          0.77830000       0.93481500       0.18421300
   104  H          0.22170000       0.06518500       0.81578700
   105  H          0.35730000       0.88781300       0.02721200
   106  H          0.64270000       0.11218700       0.97278800
   107  H          0.43230000       0.90901400       0.12231300
   108  H          0.56770000       0.09098600       0.87768700
   109  H         -0.02070000       0.84621500       0.86751200
   110  H          0.02070000       0.15378500       0.13248800
   111  H          0.75130000       0.83791400       0.84091200
   112  H          0.24870000       0.16208600       0.15908800
   113  S          0.69608500       0.14650200       0.23846200
   114  S          0.30391500       0.85349800       0.76153800
   115  O          0.70217850       0.14628800       0.14697600
   116  O          0.29782150       0.85371200       0.85302400
   117  O          0.88900850       0.22680800       0.29408700
   118  O          0.11099150       0.77319200       0.70591300
   119  O          0.72220850       0.05063700       0.27028600
   120  O          0.27779150       0.94936300       0.72971400
   121  O          0.51195850       0.17964800       0.25598600
   122  O          0.48804150       0.82035200       0.74401400
   123  H          0.87460000       0.28320000       0.28151700
   124  H          0.12540000       0.71680000       0.71848300
   125  S          0.28507500       0.81373200       0.27138200
   126  S          0.71492500       0.18626800       0.72861800
   127  O          0.08153160       0.73138800       0.22993700
   128  O          0.91846840       0.26861200       0.77006300
   129  O          0.25517150       0.90271700       0.22916600
   130  O          0.74482850       0.09728300       0.77083400
   131  O          0.45921160       0.77235900       0.25276700
   132  O          0.54078840       0.22764100       0.74723300
   133  O          0.29780140       0.83049700       0.36506600
   134  O          0.70219860       0.16950300       0.63493400
   135  H          0.07640000       0.68021900       0.25871500
   136  H          0.92360000       0.31978100       0.74128500
   137  S          0.02679500       0.47711200       0.25781200
   138  S         -0.02679500       0.52288800       0.74218800
   139  O          0.20915150       0.43160800       0.28064700
   140  O          0.79084850       0.56839200       0.71935300
   141  O          0.84274860       0.40718700       0.27371600
   142  O          0.15725140       0.59281300       0.72628400
   143  O          0.06021150       0.57687700       0.31581600
   144  O          0.93978850       0.42312300       0.68418400
   145  O         -0.01486160       0.49448800       0.16665600
   146  O          0.01486160       0.50551200       0.83334400
