data_OZEMAK
_symmetry_space_group_name_H-M    'P1'
_symmetry_Int_Tables_number       1
loop_
_symmetry_equiv_pos_site_id
_symmetry_equiv_pos_as_xyz
1 x,y,z
_cell_length_a                   5.73571
_cell_length_b                   6.24121
_cell_length_c                   10.62571
_cell_angle_alpha                86.1101
_cell_angle_beta                 74.6561
_cell_angle_gamma                77.4181
loop_
_atom_site_label
_atom_site_type_symbol
_atom_site_fract_x
_atom_site_fract_y
_atom_site_fract_z
     1  I          0.56765200       0.27025200       0.23719314
     2  I          0.43234800       0.72974800       0.76280686
     3  F          0.86953000       0.92022000       0.91808860
     4  F          0.13047000       0.07978000       0.08191140
     5  F          0.53822000       0.74232000       0.09488140
     6  F          0.46178000       0.25768000       0.90511860
     7  C          0.93784000       0.71214000       0.95768000
     8  C          0.06216000       0.28786000       0.04232000
     9  C          0.76654000       0.61964000       0.04882000
    10  C          0.23346000       0.38036000       0.95118000
    11  C          0.82504000       0.40574000       0.09372000
    12  C          0.17496000       0.59426000       0.90628000
    13  N          0.20504000       0.07973000       0.42882000
    14  N          0.79496000       0.92027000       0.57118000
    15  C          0.12174000       0.92606000       0.38162000
    16  C          0.87826000       0.07394000       0.61838000
    17  C          0.08374000       0.15494000       0.54872000
    18  C          0.91626000       0.84506000       0.45128000
    19  C          0.17705000       0.32234000       0.60463000
    20  C          0.82295000       0.67766000       0.39537000
    21  H          0.20434000       0.87116000       0.29892000
    22  H          0.79566000       0.12884000       0.70108000
    23  H          0.31720000       0.25146000       0.63621700
    24  H          0.68280000       0.74854000       0.36378300
    25  H          0.22530000       0.42791800       0.53825000
    26  H          0.77470000       0.57208200       0.46175000
    27  H          0.04881200       0.39520000       0.67531200
    28  H          0.95118800       0.60480000       0.32468800
