data_OZIDEH
_symmetry_space_group_name_H-M    'P1'
_symmetry_Int_Tables_number       1
loop_
_symmetry_equiv_pos_site_id
_symmetry_equiv_pos_as_xyz
1 x,y,z
_cell_length_a                   13.20863
_cell_length_b                   5.2909312
_cell_length_c                   17.78624
_cell_angle_alpha                90.0
_cell_angle_beta                 108.247213
_cell_angle_gamma                90.0
loop_
_atom_site_label
_atom_site_type_symbol
_atom_site_fract_x
_atom_site_fract_y
_atom_site_fract_z
     1  O          0.64533000      -0.00682000       0.46335190
     2  O          0.35467000       0.49318000       0.53664810
     3  O          0.36043000       0.39598000       0.38202000
     4  O          0.63957000       0.89598000       0.61798000
     5  O          0.53473000       0.67901000       0.19902000
     6  O          0.46527000       0.17901000       0.80098000
     7  O          0.81243000       0.30628000       0.36012000
     8  O          0.18757000       0.80628000       0.63988000
     9  O          0.09843000       0.26138000       0.63992000
    10  O          0.90157000       0.76138000       0.36008000
    11  O          0.02113000       0.64888000       0.69382000
    12  O          0.97887000       0.14888000       0.30618000
    13  C          0.74664000       0.05531200       0.45043000
    14  C          0.25336000       0.55531200       0.54957000
    15  C          0.57764000       0.84821100       0.40303000
    16  C          0.42236000       0.34821100       0.59697000
    17  C          0.50344000       0.70181200       0.42353000
    18  C          0.49656000       0.20181200       0.57647000
    19  C          0.43844000       0.54481300       0.36673000
    20  C          0.56156000       0.04481300       0.63327000
    21  C          0.44704000       0.52821300       0.29103000
    22  C          0.55296000       0.02821300       0.70897000
    23  C          0.52134000       0.68181300       0.27263000
    24  C          0.47866000       0.18181300       0.72737000
    25  C          0.58674000       0.84991200       0.32693000
    26  C          0.41326000       0.34991200       0.67307000
    27  C          0.66214000       0.02461200       0.30423000
    28  C          0.33786000       0.52461200       0.69577000
    29  C          0.72004000       0.19551200       0.37183000
    30  C          0.27996000       0.69551200       0.62817000
    31  C          0.81424000       0.20611100       0.51903000
    32  C          0.18576000       0.70611100       0.48097000
    33  C          0.92374000       0.15101100       0.54963000
    34  C          0.07626000       0.65101100       0.45037000
    35  C         -0.01026000       0.30121100       0.60743000
    36  C          0.01026000       0.80121100       0.39257000
    37  C          0.94954000       0.50881100       0.63693000
    38  C          0.05046000       0.00881100       0.36307000
    39  C          0.84114000       0.56061100       0.60803000
    40  C          0.15886000       0.06061100       0.39197000
    41  C          0.77494000       0.41041100       0.54933000
    42  C          0.22506000       0.91041100       0.45067000
    43  H          0.49810000       0.70410000       0.47480000
    44  H          0.50190000       0.20410000       0.52520000
    45  H          0.40250000       0.41780000       0.25280000
    46  H          0.59750000       0.91780000       0.74720000
    47  H          0.95170000       0.00810000       0.53080000
    48  H          0.04830000       0.50810000       0.46920000
    49  H          0.81330000       0.69610000       0.62800000
    50  H          0.18670000       0.19610000       0.37200000
    51  H          0.70180000       0.44820000       0.52970000
    52  H          0.29820000       0.94820000       0.47030000
    53  H          0.36290000       0.41460000       0.42880000
    54  H          0.63710000       0.91460000       0.57120000
    55  H          0.81870000       0.25010000       0.31760000
    56  H          0.18130000       0.75010000       0.68240000
    57  H         -0.01080000       0.76450000       0.70760000
    58  H          0.01080000       0.26450000       0.29240000
    59  H          0.49300000       0.57090000       0.17060000
    60  H          0.50700000       0.07090000       0.82940000
    61  H          0.78420000       0.89680000       0.44660000
    62  H          0.21580000       0.39680000       0.55340000
    63  H          0.62220000       0.12820000       0.25890000
    64  H          0.37780000       0.62820000       0.74110000
    65  H          0.71450000       0.92500000       0.28810000
    66  H          0.28550000       0.42500000       0.71190000
    67  H          0.11590000       0.13550000       0.61890000
    68  H          0.88410000       0.63550000       0.38110000
    69  H          0.67100000       0.33530000       0.37340000
    70  H          0.32900000       0.83530000       0.62660000
    71  O          0.04774000       0.22949000       0.06843000
    72  O          0.95226000       0.72949000       0.93157000
    73  O          0.72833000       0.84611100       0.04643000
    74  O          0.27167000       0.34611100       0.95357000
    75  N          0.88814000       0.03771100       0.05953000
    76  N          0.11186000       0.53771100       0.94047000
    77  N          0.87424000       0.69151100       0.14053000
    78  N          0.12576000       0.19151100       0.85947000
    79  N          0.04343000       0.55341000       0.23343000
    80  N          0.95657000       0.05341000       0.76657000
    81  N          0.14674000       0.84631100       0.20073000
    82  N          0.85326000       0.34631100       0.79927000
    83  C          0.04215000       0.88541300       0.15363000
    84  C          0.95785000       0.38541300       0.84637000
    85  C         -0.00165000       0.06271400       0.09234000
    86  C          0.00165000       0.56271400       0.90766000
    87  C          0.82505000       0.85591400       0.08044000
    88  C          0.17495000       0.35591400       0.91956000
    89  C          0.98234000       0.70671300       0.17523000
    90  C          0.01766000       0.20671300       0.82477000
    91  C          0.14175000       0.64841300       0.24734000
    92  C          0.85825000       0.14841300       0.75266000
    93  C          0.24085000      -0.00158500       0.20504000
    94  C          0.75915000       0.49841500       0.79496000
    95  C          0.83346000       0.20221500      -0.00794000
    96  C          0.16654000       0.70221500       0.00794000
    97  C          0.80895000       0.51541500       0.16874000
    98  C          0.19105000       0.01541500       0.83126000
    99  H          0.20090000       0.57870000       0.28620000
   100  H          0.79910000       0.07870000       0.71380000
   101  H          0.22350000       0.11950000       0.16460000
   102  H          0.77650000       0.61950000       0.83540000
   103  H          0.29600000       0.88010000       0.19690000
   104  H          0.70400000       0.38010000       0.80310000
   105  H          0.26810000       0.06820000       0.25690000
   106  H          0.73190000       0.56820000       0.74310000
   107  H          0.75820000       0.16260000       0.97450000
   108  H          0.24180000       0.66260000       0.02550000
   109  H          0.86300000       0.16840000       0.94920000
   110  H          0.13700000       0.66840000       0.05080000
   111  H          0.84540000       0.37410000       0.00870000
   112  H          0.15460000       0.87410000       0.99130000
   113  H          0.85490000       0.41010000       0.21140000
   114  H          0.14510000       0.91010000       0.78860000
   115  H          0.76920000       0.40420000       0.12610000
   116  H          0.23080000       0.90420000       0.87390000
   117  H          0.75970000       0.60690000       0.18910000
   118  H          0.24030000       0.10690000       0.81090000
   119  O          0.42415000       0.32871300       0.09823000
   120  O          0.57585000       0.82871300       0.90177000
   121  C          0.49579000       0.16630000       0.07396000
   122  C          0.50421000       0.66630000       0.92604000
   123  H          0.51010000       0.22920000       0.02830000
   124  H          0.48990000       0.72920000       0.97170000
   125  H          0.46370000      -0.00710000       0.06140000
   126  H          0.53630000       0.49290000       0.93860000
   127  H          0.56230000       0.14300000       0.11740000
   128  H          0.43770000       0.64300000       0.88260000
   129  H          0.37430000       0.35930000       0.05830000
   130  H          0.62570000       0.85930000       0.94170000
