data_OZIFOT
_symmetry_space_group_name_H-M    'P1'
_symmetry_Int_Tables_number       1
loop_
_symmetry_equiv_pos_site_id
_symmetry_equiv_pos_as_xyz
1 x,y,z
_cell_length_a                   9.0182
_cell_length_b                   10.5332
_cell_length_c                   22.7745
_cell_angle_alpha                90.0
_cell_angle_beta                 90.0
_cell_angle_gamma                90.0
loop_
_atom_site_label
_atom_site_type_symbol
_atom_site_fract_x
_atom_site_fract_y
_atom_site_fract_z
     1  S          0.66455500       0.52615400       0.06311318
     2  S          0.83544500       0.47384600       0.56311318
     3  S          0.33544500       0.02615400       0.43688682
     4  S          0.16455500       0.97384600       0.93688682
     5  O          0.69630120       0.42176110       0.95862500
     6  O          0.80369880       0.57823890       0.45862500
     7  O          0.30369880       0.92176110       0.54137500
     8  O          0.19630120       0.07823890       0.04137500
     9  O          0.65676140       0.13770110       0.02418500
    10  O          0.84323860       0.86229890       0.52418500
    11  O          0.34323860       0.63770110       0.47581500
    12  O          0.15676140       0.36229890       0.97581500
    13  N          0.50164160       0.35104130       0.00689600
    14  N         -0.00164160       0.64895870       0.50689600
    15  N          0.49835840       0.85104130       0.49310400
    16  N          0.00164160       0.14895870       0.99310400
    17  C          0.58407170       0.13962150       0.97938300
    18  C          0.91592830       0.86037850       0.47938300
    19  C          0.41592830       0.63962150       0.52061700
    20  C          0.08407170       0.36037850       0.02061700
    21  O          0.47994140       0.11828120       0.85915500
    22  O          0.02005860       0.88171880       0.35915500
    23  O          0.52005860       0.61828120       0.64084500
    24  O          0.97994140       0.38171880       0.14084500
    25  O          0.81415140       0.19217110       0.89686500
    26  O          0.68584860       0.80782890       0.39686500
    27  O          0.18584860       0.69217110       0.60313500
    28  O          0.31415140       0.30782890       0.10313500
    29  C          0.50383180       0.02864170       0.89011300
    30  C         -0.00383180       0.97135830       0.39011300
    31  C          0.49616820       0.52864170       0.60988700
    32  C          0.00383180       0.47135830       0.10988700
    33  N          0.55514150       0.03050130       0.94807400
    34  N          0.94485850       0.96949870       0.44807400
    35  N          0.44485850       0.53050130       0.55192600
    36  N          0.05514150       0.46949870       0.05192600
    37  C          0.61126180       0.34328150       0.91669300
    38  C          0.88873820       0.65671850       0.41669300
    39  C          0.38873820       0.84328150       0.58330700
    40  C          0.11126180       0.15671850       0.08330700
    41  C          0.51136180       0.26373140       0.95754300
    42  C         -0.01136180       0.73626860       0.45754300
    43  C          0.48863820       0.76373140       0.54245700
    44  C          0.01136180       0.23626860       0.04245700
    45  C          0.53365190       0.42600150       0.87262300
    46  C          0.96634810       0.57399850       0.37262300
    47  C          0.46634810       0.92600150       0.62737700
    48  C          0.03365190       0.07399850       0.12737700
    49  O          0.49113150       0.90735880       0.87238500
    50  O          0.00886850       0.09264120       0.37238500
    51  O          0.50886850       0.40735880       0.62761500
    52  O         -0.00886850       0.59264120       0.12761500
    53  C          0.61699180       0.42932160       0.00935700
    54  C          0.88300820       0.57067840       0.50935700
    55  C          0.38300820       0.92932160       0.49064300
    56  C          0.11699180       0.07067840       0.99064300
    57  N          0.72408170       0.32450150       0.82457400
    58  N          0.77591830       0.67549850       0.32457400
    59  N          0.27591830       0.82450150       0.67542600
    60  N          0.22408170       0.17549850       0.17542600
    61  C          0.72971190       0.27413160       0.87917300
    62  C          0.77028810       0.72586840       0.37917300
    63  C          0.27028810       0.77413160       0.62082700
    64  C          0.22971190       0.22586840       0.12082700
    65  C          0.59850190       0.90132840       0.96786200
    66  C          0.90149810       0.09867160       0.46786200
    67  C          0.40149810       0.40132840       0.53213800
    68  C          0.09850190       0.59867160       0.03213800
    69  C          0.60850190       0.41375170       0.81907300
    70  C          0.89149810       0.58624830       0.31907300
    71  C          0.39149810       0.91375170       0.68092700
    72  C          0.10850190       0.08624830       0.18092700
    73  C          0.51222000       0.82328840       0.92233200
    74  C         -0.01222000       0.17671160       0.42233200
    75  C          0.48778000       0.32328840       0.57766800
    76  C          0.01222000       0.67671160       0.07766800
    77  C          0.41162000       0.50440160       0.87783200
    78  C          0.08838000       0.49559840       0.37783200
    79  C          0.58838000       0.00440160       0.62216800
    80  C          0.91162000      -0.00440160       0.12216800
    81  C          0.76492000       0.88184830       0.96069100
    82  C          0.73508000       0.11815170       0.46069100
    83  C          0.23508000       0.38184830       0.53930900
    84  C          0.26492000       0.61815170       0.03930900
    85  H          0.81680000       0.93130000       0.98960000
    86  H          0.68320000       0.06870000       0.48960000
    87  H          0.18320000       0.43130000       0.51040000
    88  H          0.31680000       0.56870000       0.01040000
    89  H          0.79460000       0.90840000       0.92210000
    90  H          0.70540000       0.09160000       0.42210000
    91  H          0.20540000       0.40840000       0.57790000
    92  H          0.29460000       0.59160000       0.07790000
    93  H          0.78830000       0.79360000       0.96590000
    94  H          0.71170000       0.20640000       0.46590000
    95  H          0.21170000       0.29360000       0.53410000
    96  H          0.28830000       0.70640000       0.03410000
    97  C          0.56552000       0.48192000       0.77012200
    98  C          0.93448000       0.51808000       0.27012200
    99  C          0.43448000       0.98192000       0.72987800
   100  C          0.06552000       0.01808000       0.22987800
   101  C          0.44422000       0.56300190       0.77627200
   102  C          0.05578000       0.43699810       0.27627200
   103  C          0.55578000       0.06300190       0.72372800
   104  C          0.94422000       0.93699810       0.22372800
   105  C          0.54532000       0.87319840       0.03015800
   106  C          0.95468000       0.12680160       0.53015800
   107  C          0.45468000       0.37319840       0.46984200
   108  C          0.04532000       0.62680160       0.96984200
   109  H          0.60120000       0.92310000       0.05760000
   110  H          0.89880000       0.07690000       0.55760000
   111  H          0.39880000       0.42310000       0.44240000
   112  H          0.10120000       0.57690000       0.94240000
   113  H          0.55910000       0.78470000       0.03860000
   114  H          0.94090000       0.21530000       0.53860000
   115  H          0.44090000       0.28470000       0.46140000
   116  H          0.05910000       0.71530000       0.96140000
   117  H          0.44200000       0.89410000       0.03340000
   118  H          0.05800000       0.10590000       0.53340000
   119  H          0.55800000       0.39410000       0.46660000
   120  H          0.94200000       0.60590000       0.96660000
   121  C          0.36752000       0.57434180       0.82875200
   122  C          0.13248000       0.42565820       0.32875200
   123  C          0.63248000       0.07434180       0.67124800
   124  C          0.86752000       0.92565820       0.17124800
   125  H          0.41730000       0.79680000       0.93619000
   126  H          0.08270000       0.20320000       0.43619000
   127  H          0.58270000       0.29680000       0.56381000
   128  H          0.91730000       0.70320000       0.06381000
   129  H          0.28430000       0.62020000       0.83139000
   130  H          0.21570000       0.37980000       0.33139000
   131  H          0.71570000       0.12020000       0.66861000
   132  H          0.78430000       0.87980000       0.16861000
   133  H          0.35820000       0.51520000       0.91459000
   134  H          0.14180000       0.48480000       0.41459000
   135  H          0.64180000       0.01520000       0.58541000
   136  H          0.85820000       0.98480000       0.08541000
   137  H          0.41630000       0.60820000       0.74489000
   138  H          0.08370000       0.39180000       0.24489000
   139  H          0.58370000       0.10820000       0.75511000
   140  H          0.91630000       0.89180000       0.25511000
   141  H          0.62020000       0.47020000       0.73529000
   142  H          0.87980000       0.52980000       0.23529000
   143  H          0.37980000       0.97020000       0.76471000
   144  H          0.12020000       0.02980000       0.26471000
   145  H          0.56730000       0.74680000       0.90849000
   146  H          0.93270000       0.25320000       0.40849000
   147  H          0.43270000       0.24680000       0.59151000
   148  H          0.06730000       0.75320000       0.09151000
   149  H          0.78630000       0.29920000       0.79699000
   150  H          0.71370000       0.70080000       0.29699000
   151  H          0.21370000       0.79920000       0.70301000
   152  H          0.28630000       0.20080000       0.20301000
   153  H          0.41330000       0.24720000       0.94009000
   154  H          0.08670000       0.75280000       0.44009000
   155  H          0.58670000       0.74720000       0.55991000
   156  H          0.91330000       0.25280000       0.05991000
   157  H          0.44930000       0.33420000       0.03601000
   158  H          0.05070000       0.66580000       0.53601000
   159  H          0.55070000       0.83420000       0.46399000
   160  H          0.94930000       0.16580000       0.96399000
   161  O          0.93925170       0.23312170       0.74474300
   162  O          0.56074830       0.76687830       0.24474300
   163  O          0.06074830       0.73312170       0.75525700
   164  O          0.43925170       0.26687830       0.25525700
   165  C          0.00653000       0.30313000       0.69946890
   166  C          0.49347000       0.69687000       0.19946890
   167  C         -0.00653000       0.80313000       0.80053110
   168  C          0.50653000       0.19687000       0.30053110
   169  H          0.95060000       0.38010000       0.69200000
   170  H          0.54940000       0.61990000       0.19200000
   171  H          0.04940000       0.88010000       0.80800000
   172  H          0.45060000       0.11990000       0.30800000
   173  H          0.00880000       0.25330000       0.66360000
   174  H          0.49120000       0.74670000       0.16360000
   175  H         -0.00880000       0.75330000       0.83640000
   176  H          0.50880000       0.24670000       0.33640000
   177  C          0.05993000       0.17663000       0.77791880
   178  C          0.44007000       0.82337000       0.27791880
   179  C          0.94007000       0.67663000       0.72208120
   180  C          0.55993000       0.32337000       0.22208120
   181  H          0.09560000       0.10020000       0.75880000
   182  H          0.40440000       0.89980000       0.25880000
   183  H          0.90440000       0.60020000       0.74120000
   184  H          0.59560000       0.39980000       0.24120000
   185  H          0.02830000       0.15560000       0.81740000
   186  H          0.47170000       0.84440000       0.31740000
   187  H          0.97170000       0.65560000       0.68260000
   188  H          0.52830000       0.34440000       0.18260000
   189  C          0.17734000       0.27633000       0.77888850
   190  C          0.32266000       0.72367000       0.27888850
   191  C          0.82266000       0.77633000       0.72111150
   192  C          0.67734000       0.22367000       0.22111150
   193  H          0.27480000       0.23930000       0.78440000
   194  H          0.22520000       0.76070000       0.28440000
   195  H          0.72520000       0.73930000       0.71560000
   196  H          0.77480000       0.26070000       0.21560000
   197  H          0.15910000       0.33800000       0.80960000
   198  H          0.34090000       0.66200000       0.30960000
   199  H          0.84090000       0.83800000       0.69040000
   200  H          0.65910000       0.16200000       0.19040000
   201  C          0.16254000       0.33585000       0.71838840
   202  C          0.33746000       0.66415000       0.21838840
   203  C          0.83746000       0.83585000       0.78161160
   204  C          0.66254000       0.16415000       0.28161160
   205  H          0.17610000       0.42700000       0.72030000
   206  H          0.32390000       0.57300000       0.22030000
   207  H          0.82390000       0.92700000       0.77970000
   208  H          0.67610000       0.07300000       0.27970000
   209  H          0.23470000       0.30040000       0.69140000
   210  H          0.26530000       0.69960000       0.19140000
   211  H          0.76530000       0.80040000       0.80860000
   212  H          0.73470000       0.19960000       0.30860000
