data_PAGFIP
_symmetry_space_group_name_H-M    'P1'
_symmetry_Int_Tables_number       1
loop_
_symmetry_equiv_pos_site_id
_symmetry_equiv_pos_as_xyz
1 x,y,z
_cell_length_a                   6.69814
_cell_length_b                   6.99884
_cell_length_c                   14.17709
_cell_angle_alpha                91.0705
_cell_angle_beta                 92.1315
_cell_angle_gamma                96.6025
loop_
_atom_site_label
_atom_site_type_symbol
_atom_site_fract_x
_atom_site_fract_y
_atom_site_fract_z
     1  O          0.11011160       0.56895150       0.89399700
     2  O          0.88988840       0.43104850       0.10600300
     3  N          0.70817190       0.71283170       0.65579900
     4  N          0.29182810       0.28716830       0.34420100
     5  N          0.88281190       0.71178170       0.97708900
     6  N          0.11718810       0.28821830       0.02291100
     7  H          0.81490000       0.71090000       0.02910000
     8  H          0.18510000       0.28910000       0.97090000
     9  C          0.73422000       0.78812000       0.82222110
    10  C          0.26578000       0.21188000       0.17777890
    11  C          0.81692000       0.77822000       0.73381110
    12  C          0.18308000       0.22178000       0.26618890
    13  H          0.95610000       0.81930000       0.72840000
    14  H          0.04390000       0.18070000       0.27160000
    15  C          0.51222000       0.65622000       0.66314110
    16  C          0.48778000       0.34378000       0.33685890
    17  H          0.43500000       0.61010000       0.60810000
    18  H          0.56500000       0.38990000       0.39190000
    19  C          0.41772000       0.66212000       0.74804110
    20  C          0.58228000       0.33788000       0.25195890
    21  H          0.27780000       0.62180000       0.75100000
    22  H          0.72220000       0.37820000       0.24900000
    23  C          0.52992000       0.72762000       0.82860110
    24  C          0.47008000       0.27238000       0.17139890
    25  H          0.46800000       0.73130000       0.88770000
    26  H          0.53200000       0.26870000       0.11230000
    27  C          0.86272000       0.86172000       0.90832110
    28  C          0.13728000       0.13828000       0.09167890
    29  H         -0.00200000       0.91320000       0.88830000
    30  H          0.00200000       0.08680000       0.11170000
    31  H          0.80180000       0.96840000       0.93860000
    32  H          0.19820000       0.03160000       0.06140000
    33  C          0.00312000       0.57622000       0.96193100
    34  C         -0.00312000       0.42378000       0.03806900
    35  O          0.87273160       0.69092160       0.49240800
    36  O          0.12726840       0.30907840       0.50759200
    37  H          0.82530000       0.69830000       0.54818000
    38  H          0.17470000       0.30170000       0.45182000
    39  O          0.14230170       0.83861170       0.57361800
    40  O          0.85769830       0.16138830       0.42638200
    41  O          0.41048190       0.74597180       0.08648800
    42  O          0.58951810       0.25402820       0.91351200
    43  O          0.68626180       0.82597180       0.16957800
    44  O          0.31373820       0.17402820       0.83042200
    45  N          0.50282000       0.78448180       0.16264900
    46  N          0.49718000       0.21551820       0.83735100
    47  C          0.06082000       0.76902000       0.50090110
    48  C          0.93918000       0.23098000       0.49909890
    49  C          0.17232000       0.76692000       0.41044100
    50  C          0.82768000       0.23308000       0.58955900
    51  C          0.07482000       0.71812000       0.32349110
    52  C          0.92518000       0.28188000       0.67650890
    53  H          0.93390000       0.68010000       0.32010000
    54  H          0.06610000       0.31990000       0.67990000
    55  C          0.18232000       0.72462000       0.24197110
    56  C          0.81768000       0.27538000       0.75802890
    57  H          0.11660000       0.69240000       0.18230000
    58  H          0.88340000       0.30760000       0.81770000
    59  C          0.38832000       0.77912000       0.24931100
    60  C          0.61168000       0.22088000       0.75068900
    61  C          0.49022000       0.82882000       0.33481110
    62  C          0.50978000       0.17118000       0.66518890
    63  H          0.63100000       0.86720000       0.33790000
    64  H          0.36900000       0.13280000       0.66210000
    65  C          0.37962000       0.82042000       0.41546110
    66  C          0.62038000       0.17958000       0.58453890
    67  H          0.44580000       0.85160000       0.47510000
    68  H          0.55420000       0.14840000       0.52490000
