data_PAGHEO
_symmetry_space_group_name_H-M    'P1'
_symmetry_Int_Tables_number       1
loop_
_symmetry_equiv_pos_site_id
_symmetry_equiv_pos_as_xyz
1 x,y,z
_cell_length_a                   10.53325
_cell_length_b                   21.09458
_cell_length_c                   8.19163
_cell_angle_alpha                90.0
_cell_angle_beta                 94.724513
_cell_angle_gamma                90.0
loop_
_atom_site_label
_atom_site_type_symbol
_atom_site_fract_x
_atom_site_fract_y
_atom_site_fract_z
     1  S          0.48546700       0.62653400      -0.00022700
     2  S          0.51453300       0.12653400       0.50022700
     3  S          0.51453300       0.37346600       0.00022700
     4  S          0.48546700       0.87346600       0.49977300
     5  C          0.33983000       0.66212120      -0.01563000
     6  C          0.66017000       0.16212120       0.51563000
     7  C          0.66017000       0.33787880       0.01563000
     8  C          0.33983000       0.83787880       0.48437000
     9  N          0.28022000       0.67572100       0.83968000
    10  N          0.71978000       0.17572100       0.66032000
    11  N          0.71978000       0.32427900       0.16032000
    12  N          0.28022000       0.82427900       0.33968000
    13  H          0.20451000       0.69365600       0.83411500
    14  H          0.79549000       0.19365600       0.66588500
    15  H          0.79549000       0.30634400       0.16588500
    16  H          0.20451000       0.80634400       0.33411500
    17  H          0.31628400       0.66681900       0.74936600
    18  H          0.68371600       0.16681900       0.75063400
    19  H          0.68371600       0.33318100       0.25063400
    20  H          0.31628400       0.83318100       0.24936600
    21  N          0.28142000       0.67646110       0.11752000
    22  N          0.71858000       0.17646110       0.38248000
    23  N          0.71858000       0.32353890       0.88248000
    24  N          0.28142000       0.82353890       0.61752000
    25  H          0.20575100       0.69438300       0.10781200
    26  H          0.79424900       0.19438300       0.39218800
    27  H          0.79424900       0.30561700       0.89218800
    28  H          0.20575100       0.80561700       0.60781200
    29  H          0.31852300       0.66802700       0.21531200
    30  H          0.68147700       0.16802700       0.28468800
    31  H          0.68147700       0.33197300       0.78468800
    32  H          0.31852300       0.83197300       0.71531200
    33  S          0.24404700       0.45375300       0.47258700
    34  S          0.75595300       0.95375300       0.02741300
    35  S          0.75595300       0.54624700       0.52741300
    36  S          0.24404700       0.04624700       0.97258700
    37  C          0.15752000       0.52249120       0.46313000
    38  C          0.84248000       0.02249120       0.03687000
    39  C          0.84248000       0.47750880       0.53687000
    40  C          0.15752000       0.97750880       0.96313000
    41  N          0.12282000       0.54970100       0.32042000
    42  N          0.87718000       0.04970100       0.17958000
    43  N          0.87718000       0.45029900       0.67958000
    44  N          0.12282000       0.95029900       0.82042000
    45  H          0.07786100       0.58491900       0.31716300
    46  H          0.92213900       0.08491900       0.18283700
    47  H          0.92213900       0.41508100       0.68283700
    48  H          0.07786100       0.91508100       0.81716300
    49  H          0.14463200       0.53252300       0.22886800
    50  H          0.85536800       0.03252300       0.27113200
    51  H          0.85536800       0.46747700       0.77113200
    52  H          0.14463200       0.96747700       0.72886800
    53  N          0.12286190       0.54969100       0.59762000
    54  N          0.87713810       0.04969100       0.90238000
    55  N          0.87713810       0.45030900       0.40238000
    56  N          0.12286190       0.95030900       0.09762000
    57  H          0.07795300       0.58491500       0.59105400
    58  H          0.92204700       0.08491500       0.90894600
    59  H          0.92204700       0.41508500       0.40894600
    60  H          0.07795300       0.91508500       0.09105400
    61  H          0.14466800       0.53261000       0.69388400
    62  H          0.85533200       0.03261000       0.80611600
    63  H          0.85533200       0.46739000       0.30611600
    64  H          0.14466800       0.96739000       0.19388400
    65  S          0.40474700       0.62561400       0.49020700
    66  S          0.59525300       0.12561400       0.00979300
    67  S          0.59525300       0.37438600       0.50979300
    68  S          0.40474700       0.87438600      -0.00979300
    69  C          0.54133000       0.66883120       0.50573000
    70  C          0.45867000       0.16883120      -0.00573000
    71  C          0.45867000       0.33116880       0.49427000
    72  C          0.54133000       0.83116880       0.00573000
    73  N          0.59752000       0.68600100       0.65022000
    74  N          0.40248000       0.18600100       0.84978000
    75  N          0.40248000       0.31399900       0.34978000
    76  N          0.59752000       0.81399900       0.15022000
    77  H          0.66891500       0.70781700       0.65516000
    78  H          0.33108500       0.20781700       0.84484000
    79  H          0.33108500       0.29218300       0.34484000
    80  H          0.66891500       0.79218300       0.15516000
    81  H          0.56329400       0.67553500       0.74088000
    82  H          0.43670600       0.17553500       0.75912000
    83  H          0.43670600       0.32446500       0.25912000
    84  H          0.56329400       0.82446500       0.24088000
    85  N          0.59852000       0.68634100       0.37422000
    86  N          0.40148000       0.18634100       0.12578000
    87  N          0.40148000       0.31365900       0.62578000
    88  N          0.59852000       0.81365900       0.87422000
    89  H          0.66991200       0.70814900       0.38551000
    90  H          0.33008800       0.20814900       0.11449000
    91  H          0.33008800       0.29185100       0.61449000
    92  H          0.66991200       0.79185100       0.88551000
    93  H          0.56499500       0.67610300       0.27573000
    94  H          0.43500500       0.17610300       0.22427000
    95  H          0.43500500       0.32389700       0.72427000
    96  H          0.56499500       0.82389700       0.77573000
    97  S          0.76542700       0.99295300       0.52812800
    98  S          0.23457300       0.49295300       0.97187200
    99  S          0.23457300       0.00704700       0.47187200
   100  S          0.76542700       0.50704700       0.02812800
   101  C          0.81552000       0.91615130       0.53323000
   102  C          0.18448000       0.41615130       0.96677000
   103  C          0.18448000       0.08384870       0.46677000
   104  C          0.81552000       0.58384870       0.03323000
   105  N          0.83602000       0.88513100       0.39602000
   106  N          0.16398000       0.38513100       0.10398000
   107  N          0.16398000       0.11486900       0.60398000
   108  N          0.83602000       0.61486900       0.89602000
   109  H          0.86148000       0.84539700       0.40082800
   110  H          0.13852000       0.34539700       0.09917200
   111  H          0.13852000       0.15460300       0.59917200
   112  H          0.86148000       0.65460300       0.90082800
   113  H          0.82410200       0.90439700       0.30072600
   114  H          0.17589800       0.40439700       0.19927400
   115  H          0.17589800       0.09560300       0.69927400
   116  H          0.82410200       0.59560300       0.80072600
   117  N          0.83492000       0.88483100       0.67372000
   118  N          0.16508000       0.38483100       0.82628000
   119  N          0.16508000       0.11516900       0.32628000
   120  N          0.83492000       0.61516900       0.17372000
   121  H          0.86040700       0.84509500       0.67386000
   122  H          0.13959300       0.34509500       0.82614000
   123  H          0.13959300       0.15490500       0.32614000
   124  H          0.86040700       0.65490500       0.17386000
   125  H          0.82232100       0.90380200       0.76669800
   126  H          0.17767900       0.40380200       0.73330200
   127  H          0.17767900       0.09619800       0.23330200
   128  H          0.82232100       0.59619800       0.26669800
   129  S          0.07705800       0.70447400       0.46792900
   130  S          0.92294200       0.20447400       0.03207100
   131  S          0.92294200       0.29552600       0.53207100
   132  S          0.07705800       0.79552600       0.96792900
   133  C          0.93753000       0.72840130       0.51963000
   134  C          0.06247000       0.22840130       0.98037000
   135  C          0.06247000       0.27159870       0.48037000
   136  C          0.93753000       0.77159870       0.01963000
   137  N          0.83993000       0.74619130       0.55634000
   138  N          0.16007000       0.24619130       0.94366000
   139  N          0.16007000       0.25380870       0.44366000
   140  N          0.83993000       0.75380870       0.05634000
   141  N          0.50022000       0.50011100       0.25722000
   142  N          0.49978000       0.00011100       0.24278000
   143  N          0.49978000       0.49988900       0.74278000
   144  N          0.50022000      -0.00011100       0.75722000
   145  H          0.47341700       0.53066000       0.19061900
   146  H          0.52658300       0.03066000       0.30938100
   147  H          0.52658300       0.46934000       0.80938100
   148  H          0.47341700       0.96934000       0.69061900
   149  H          0.53201700       0.46947000       0.19920000
   150  H          0.46798300       0.96947000       0.30080000
   151  H          0.46798300       0.53053000       0.80080000
   152  H          0.53201700       0.03053000       0.69920000
   153  H          0.56001400       0.51388000       0.32841800
   154  H          0.43998600       0.01388000       0.17158200
   155  H          0.43998600       0.48612000       0.67158200
   156  H          0.56001400       0.98612000       0.82841800
   157  H          0.43581300       0.48529000       0.30720000
   158  H          0.56418700       0.98529000       0.19280000
   159  H          0.56418700       0.51471000       0.69280000
   160  H          0.43581300       0.01471000       0.80720000
