data_PAHHAJ
_symmetry_space_group_name_H-M    'P1'
_symmetry_Int_Tables_number       1
loop_
_symmetry_equiv_pos_site_id
_symmetry_equiv_pos_as_xyz
1 x,y,z
_cell_length_a                   9.32421
_cell_length_b                   11.476112
_cell_length_c                   15.623616
_cell_angle_alpha                76.2641
_cell_angle_beta                 76.3591
_cell_angle_gamma                83.4661
loop_
_atom_site_label
_atom_site_type_symbol
_atom_site_fract_x
_atom_site_fract_y
_atom_site_fract_z
     1  Br         0.17691500       0.77837400       0.07345300
     2  Br         0.82308500       0.22162600       0.92654700
     3  P          0.42517800       0.98237600       0.29795500
     4  P          0.57482200       0.01762400       0.70204500
     5  C          0.47463000       0.19943000       0.18151190
     6  C          0.52537000       0.80057000       0.81848810
     7  H          0.50970000       0.21710000       0.22770000
     8  H          0.49030000       0.78290000       0.77230000
     9  O          0.53253000       0.39562000       0.08707160
    10  O          0.46747000       0.60438000       0.91292840
    11  C          0.36323000       0.05993000       0.12427180
    12  C          0.63677000       0.94007000       0.87572820
    13  C          0.36443000       0.14973000       0.04403180
    14  C          0.63557000       0.85027000       0.95596820
    15  C          0.24293000       0.93363000       0.35022180
    16  C          0.75707000       0.06637000       0.64977820
    17  C          0.47913000       0.05422000       0.37598170
    18  C          0.52087000       0.94578000       0.62401830
    19  H          0.57810000       0.08150000       0.35070000
    20  H          0.42190000       0.91850000       0.64930000
    21  H          0.41260000       0.12410000       0.38380000
    22  H          0.58740000       0.87590000       0.61620000
    23  C          0.42334000       0.26063000       0.03402190
    24  C          0.57666000       0.73937000       0.96597810
    25  C          0.47614000       0.96923000       0.46801190
    26  C          0.52386000       0.03077000       0.53198810
    27  C          0.42013000       0.08853000       0.19405180
    28  C          0.57987000       0.91147000       0.80594820
    29  C          0.25154000       0.92933000       0.06252000
    30  C          0.74846000       0.07067000       0.93748000
    31  C          0.56193000       0.86143000       0.27925180
    32  C          0.43807000       0.13857000       0.72074820
    33  C          0.30603000       0.94963000       0.13142000
    34  C          0.69397000       0.05037000       0.86858000
    35  H          0.30500000       0.88960000       0.18330000
    36  H          0.69500000       0.11040000       0.81670000
    37  C          0.12434000       0.01533000       0.33742000
    38  C          0.87566000       0.98467000       0.66258000
    39  H          0.14060000       0.09020000       0.29890000
    40  H          0.85940000       0.90980000       0.70110000
    41  O          0.42333000       0.34392000       0.95621840
    42  O          0.57667000       0.65608000       0.04378160
    43  C          0.47863000       0.28553000       0.10162000
    44  C          0.52137000       0.71447000       0.89838000
    45  C          0.70744000       0.88443000       0.26962000
    46  C          0.29256000       0.11557000       0.73038000
    47  H          0.73050000       0.95870000       0.27490000
    48  H          0.26950000       0.04130000       0.72510000
    49  C          0.52854000       0.75123000       0.27012000
    50  C          0.47146000       0.24877000       0.72988000
    51  H          0.43090000       0.73460000       0.27610000
    52  H          0.56910000       0.26540000       0.72390000
    53  C          0.24934000       0.01754000       0.98398000
    54  C          0.75066000       0.98246000       0.01602000
    55  H          0.21000000       0.00300000       0.93830000
    56  H          0.79000000      -0.00300000       0.06170000
    57  C          0.21704000       0.82263000       0.40782000
    58  C          0.78296000       0.17737000       0.59218000
    59  H          0.29560000       0.76730000       0.41780000
    60  H          0.70440000       0.23270000       0.58220000
    61  C          0.30494000       0.12374000       0.97538000
    62  C          0.69506000       0.87626000       0.02462000
    63  H          0.30450000       0.18210000       0.92280000
    64  H          0.69550000       0.81790000       0.07720000
    65  C          0.98366000       0.98634000       0.38103000
    66  C          0.01634000       0.01366000       0.61897000
    67  H          0.90470000       0.04180000       0.37270000
    68  H          0.09530000       0.95820000       0.62730000
    69  C          0.64355000       0.66493000       0.25182000
    70  C          0.35645000       0.33507000       0.74818000
    71  H          0.62240000       0.59110000       0.24440000
    72  H          0.37760000       0.40890000       0.75560000
    73  C          0.07385000       0.79424000       0.45063000
    74  C          0.92615000       0.20576000       0.54937000
    75  H          0.05590000       0.71940000       0.48880000
    76  H          0.94410000       0.28060000       0.51120000
    77  C          0.78545000       0.68864000       0.24473000
    78  C          0.21455000       0.31136000       0.75527000
    79  H          0.86090000       0.62980000       0.23470000
    80  H          0.13910000       0.37020000       0.76530000
    81  C          0.95856000       0.87604000       0.43673000
    82  C          0.04144000       0.12396000       0.56327000
    83  H          0.86240000       0.85640000       0.46550000
    84  H          0.13760000       0.14360000       0.53450000
    85  C          0.81855000       0.79834000       0.25213000
    86  C          0.18145000       0.20166000       0.74787000
    87  H          0.91650000       0.81470000       0.24520000
    88  H          0.08350000       0.18530000       0.75480000
    89  H          0.59940000       0.39940000       0.11830000
    90  H          0.40060000       0.60060000       0.88170000
    91  H          0.37640000       0.95130000       0.48920000
    92  H          0.62360000       0.04870000       0.51080000
    93  H          0.53840000       0.89630000       0.46420000
    94  H          0.46160000       0.10370000       0.53580000
    95  H          0.45650000       0.41130000       0.96070000
    96  H          0.54350000       0.58870000       0.03930000
    97  H          0.40140000       0.60140000       0.88230000
    98  H          0.59860000       0.39860000       0.11770000
    99  H          0.54450000       0.58930000       0.03930000
   100  H          0.45550000       0.41070000       0.96070000
   101  S          0.82695110       0.29898800       0.22674700
   102  S          0.17304890       0.70101200       0.77325300
   103  O          0.70953000       0.38272000       0.20602000
   104  O          0.29047000       0.61728000       0.79398000
   105  O          0.81714000       0.17993000       0.21773000
   106  O          0.18286000       0.82007000       0.78227000
   107  F          0.10664000       0.28434000       0.16373000
   108  F          0.89336000       0.71566000       0.83627000
   109  O          0.86403000       0.30313000       0.31022000
   110  O          0.13597000       0.69687000       0.68978000
   111  F          0.01094000       0.46213000       0.14653000
   112  F          0.98906000       0.53787000       0.85347000
   113  F          0.97816000       0.35074000       0.06422000
   114  F          0.02184000       0.64926000       0.93578000
   115  C         -0.00944000       0.35125000       0.14454000
   116  C          0.00944000       0.64875000       0.85546000
   117  S          0.30629120       0.41677900       0.43136800
   118  S          0.69370880       0.58322100       0.56863200
   119  O          0.43673000       0.48193000       0.40682000
   120  O          0.56327000       0.51807000       0.59318000
   121  O          0.20213000       0.45083000       0.50532000
   122  O          0.79787000       0.54917000       0.49468000
   123  F          0.19245000       0.58804000       0.32333000
   124  F          0.80755000       0.41196000       0.67667000
   125  F          0.09155000       0.42865000       0.35163000
   126  F          0.90845000       0.57135000       0.64837000
   127  F          0.30276000       0.45195000       0.26383000
   128  F          0.69724000       0.54805000       0.73617000
   129  O          0.32686000       0.29243000       0.43893000
   130  O          0.67314000       0.70757000       0.56107000
   131  C          0.21906000       0.47005000       0.33824000
   132  C          0.78094000       0.52995000       0.66176000
   133  O          0.70014000       0.40454000       0.42352000
   134  O          0.29986000       0.59546000       0.57648000
   135  H          0.76050000       0.36350000       0.38230000
   136  H          0.23950000       0.63650000       0.61770000
   137  H          0.60330000       0.42860000       0.42050000
   138  H          0.39670000       0.57140000       0.57950000
   139  H          0.75150000       0.46630000       0.38730000
   140  H          0.24850000       0.53370000       0.61270000
