data_PAHHAK
_symmetry_space_group_name_H-M    'P1'
_symmetry_Int_Tables_number       1
loop_
_symmetry_equiv_pos_site_id
_symmetry_equiv_pos_as_xyz
1 x,y,z
_cell_length_a                   32.100015
_cell_length_b                   4.11882
_cell_length_c                   9.69664
_cell_angle_alpha                90.0
_cell_angle_beta                 90.0
_cell_angle_gamma                90.0
loop_
_atom_site_label
_atom_site_type_symbol
_atom_site_fract_x
_atom_site_fract_y
_atom_site_fract_z
     1  N          0.48508500       0.91465000       0.65662170
     2  N          0.51491500       0.08535000       0.15662170
     3  N          0.98508500       0.08535000       0.65662170
     4  N          0.01491500       0.91465000       0.15662170
     5  O          0.48912400       0.72493000       0.43871150
     6  O          0.51087600       0.27507000       0.93871150
     7  O          0.98912400       0.27507000       0.43871150
     8  O          0.01087600       0.72493000       0.93871150
     9  O          0.67637400       0.19013000       0.52095140
    10  O          0.32362600       0.80987000       0.02095140
    11  O          0.17637400       0.80987000       0.52095140
    12  O          0.82362600       0.19013000       0.02095140
    13  C          0.55055500       0.95704000       0.53387180
    14  C          0.44944500       0.04296000       0.03387180
    15  C          0.05055500       0.04296000       0.53387180
    16  C          0.94944500       0.95704000       0.03387180
    17  C          0.57534500       0.83204000       0.42795180
    18  C          0.42465500       0.16796000       0.92795180
    19  C          0.07534500       0.16796000       0.42795180
    20  C          0.92465500       0.83204000       0.92795180
    21  C          0.61755500       0.90474000       0.42154170
    22  C          0.38244500       0.09526000       0.92154170
    23  C          0.11755500       0.09526000       0.42154170
    24  C          0.88244500       0.90474000       0.92154170
    25  C          0.63517500       0.10704000       0.52083170
    26  C          0.36482500       0.89296000       0.02083170
    27  C          0.13517500       0.89296000       0.52083170
    28  C          0.86482500       0.10704000       0.02083170
    29  C          0.61049500       0.23774000       0.62513190
    30  C          0.38950500       0.76226000       0.12513190
    31  C          0.11049500       0.76226000       0.62513190
    32  C          0.88950500       0.23774000       0.12513190
    33  C          0.56852500       0.16204000       0.63199180
    34  C          0.43147500       0.83796000       0.13199180
    35  C          0.06852500       0.83796000       0.63199180
    36  C          0.93147500       0.16204000       0.13199180
    37  C          0.50608500       0.85924000       0.54043180
    38  C          0.49391500       0.14076000       0.04043180
    39  C          0.00608500       0.14076000       0.54043180
    40  C          0.99391500       0.85924000       0.04043180
    41  H          0.45739000       0.86580000       0.66240000
    42  H          0.54261000       0.13420000       0.16240000
    43  H          0.95739000       0.13420000       0.66240000
    44  H          0.04261000       0.86580000       0.16240000
    45  H          0.68909000       0.06170000       0.47430000
    46  H          0.31091000       0.93830000       0.97430000
    47  H          0.18909000       0.93830000       0.47430000
    48  H          0.81091000       0.06170000       0.97430000
    49  H          0.49581000      -0.00310000       0.72640000
    50  H          0.50419000       0.00310000       0.22640000
    51  H         -0.00419000       0.00310000       0.72640000
    52  H          0.00419000      -0.00310000       0.22640000
    53  H          0.56288000       0.68860000       0.35930000
    54  H          0.43712000       0.31140000       0.85930000
    55  H          0.06288000       0.31140000       0.35930000
    56  H          0.93712000       0.68860000       0.85930000
    57  H          0.63468000       0.80550000       0.35030000
    58  H          0.36532000       0.19450000       0.85030000
    59  H          0.13468000       0.19450000       0.35030000
    60  H          0.86532000       0.80550000       0.85030000
    61  H          0.62357000       0.39260000       0.69030000
    62  H          0.37643000       0.60740000       0.19030000
    63  H          0.12357000       0.60740000       0.69030000
    64  H          0.87643000       0.39260000       0.19030000
    65  H          0.55188000       0.26260000       0.71030000
    66  H          0.44812000       0.73740000       0.21030000
    67  H          0.05188000       0.73740000       0.71030000
    68  H          0.94812000       0.26260000       0.21030000
    69  N          0.22307500       0.25214000       0.37905180
    70  N          0.77692500       0.74786000       0.87905180
    71  N          0.72307500       0.74786000       0.37905180
    72  N          0.27692500       0.25214000       0.87905180
    73  O          0.39947400       0.68744000       0.62712150
    74  O          0.60052600       0.31256000       0.12712150
    75  O          0.89947400       0.31256000       0.62712150
    76  O          0.10052600       0.68744000       0.12712150
    77  O          0.41876400       0.42703000       0.43383150
    78  O          0.58123600       0.57297000       0.93383150
    79  O          0.91876400       0.57297000       0.43383150
    80  O          0.08123600       0.42703000       0.93383150
    81  O          0.32152400       0.74143000       0.68455140
    82  O          0.67847600       0.25857000       0.18455140
    83  O          0.82152400       0.25857000       0.68455140
    84  O          0.17847600       0.74143000       0.18455140
    85  C          0.34753500       0.43064000       0.49174170
    86  C          0.65246500       0.56936000      -0.00825830
    87  C          0.84753500       0.56936000       0.49174170
    88  C          0.15246500       0.43064000      -0.00825830
    89  C          0.31460500       0.55574000       0.57132170
    90  C          0.68539500       0.44426000       0.07132170
    91  C          0.81460500       0.44426000       0.57132170
    92  C          0.18539500       0.55574000       0.07132170
    93  C          0.27340500       0.49284000       0.53478180
    94  C          0.72659500       0.50716000       0.03478180
    95  C          0.77340500       0.50716000       0.53478180
    96  C          0.22659500       0.49284000       0.03478180
    97  C          0.26470500       0.31004000       0.41740180
    98  C          0.73529500       0.68996000       0.91740180
    99  C          0.76470500       0.68996000       0.41740180
   100  C          0.23529500       0.31004000       0.91740180
   101  C          0.29734500       0.17544000       0.33920190
   102  C          0.70265500       0.82456000       0.83920190
   103  C          0.79734500       0.82456000       0.33920190
   104  C          0.20265500       0.17544000       0.83920190
   105  C          0.33811500       0.23754000       0.37680180
   106  C          0.66188500       0.76246000       0.87680180
   107  C          0.83811500       0.76246000       0.37680180
   108  C          0.16188500       0.23754000       0.87680180
   109  C          0.39071500       0.52314000       0.52350170
   110  C          0.60928500       0.47686000       0.02350170
   111  C          0.89071500       0.47686000       0.52350170
   112  C          0.10928500       0.52314000       0.02350170
   113  H          0.20798000       0.42460000       0.39830000
   114  H          0.79202000       0.57540000       0.89830000
   115  H          0.70798000       0.57540000       0.39830000
   116  H          0.29202000       0.42460000       0.89830000
   117  H          0.22069000       0.20970000       0.29130000
   118  H          0.77931000       0.79030000       0.79130000
   119  H          0.72069000       0.79030000       0.29130000
   120  H          0.27931000       0.20970000       0.79130000
   121  H          0.34869000       0.74370000       0.69130000
   122  H          0.65131000       0.25630000       0.19130000
   123  H          0.84869000       0.25630000       0.69130000
   124  H          0.15131000       0.74370000       0.19130000
   125  H          0.44041000       0.54380000       0.44940000
   126  H          0.55959000       0.45620000       0.94940000
   127  H          0.94041000       0.45620000       0.44940000
   128  H          0.05959000       0.54380000       0.94940000
   129  H          0.25078000       0.57950000       0.59030000
   130  H          0.74922000       0.42050000       0.09030000
   131  H          0.75078000       0.42050000       0.59030000
   132  H          0.24922000       0.57950000       0.09030000
   133  H          0.29188000       0.04660000       0.26530000
   134  H          0.70812000       0.95340000       0.76530000
   135  H          0.79188000       0.95340000       0.26530000
   136  H          0.20812000       0.04660000       0.76530000
   137  H          0.36038000       0.14460000       0.32330000
   138  H          0.63962000       0.85540000       0.82330000
   139  H          0.86038000       0.85540000       0.32330000
   140  H          0.13962000       0.14460000       0.82330000
