data_PAHZEG
_symmetry_space_group_name_H-M    'P1'
_symmetry_Int_Tables_number       1
loop_
_symmetry_equiv_pos_site_id
_symmetry_equiv_pos_as_xyz
1 x,y,z
_cell_length_a                   4.24338
_cell_length_b                   20.1784
_cell_length_c                   20.8304
_cell_angle_alpha                90.0
_cell_angle_beta                 94.8522
_cell_angle_gamma                90.0
loop_
_atom_site_label
_atom_site_type_symbol
_atom_site_fract_x
_atom_site_fract_y
_atom_site_fract_z
     1  C          0.16568000       0.47596180       0.94844830
     2  C          0.83432000       0.97596180       0.55155170
     3  C          0.83432000       0.52403820       0.05155170
     4  C          0.16568000       0.02403820       0.44844830
     5  C          0.34949000       0.44992180       0.89982820
     6  C          0.65051000       0.94992180       0.60017180
     7  C          0.65051000       0.55007820       0.10017180
     8  C          0.34949000       0.05007820       0.39982820
     9  H          0.42810000       0.47920000       0.86930000
    10  H          0.57190000       0.97920000       0.63070000
    11  H          0.57190000       0.52080000       0.13070000
    12  H          0.42810000       0.02080000       0.36930000
    13  C          0.41429000       0.38395180       0.89639810
    14  C          0.58571000       0.88395180       0.60360190
    15  C          0.58571000       0.61604820       0.10360190
    16  C          0.41429000       0.11604820       0.39639810
    17  H          0.53730000       0.36780000       0.86370000
    18  H          0.46270000       0.86780000       0.63630000
    19  H          0.46270000       0.63220000       0.13630000
    20  H          0.53730000       0.13220000       0.36370000
    21  C          0.29889000       0.33916190       0.94147820
    22  C          0.70111000       0.83916190       0.55852180
    23  C          0.70111000       0.66083810       0.05852180
    24  C          0.29889000       0.16083810       0.44147820
    25  H          0.33750000       0.29300000       0.93800000
    26  H          0.66250000       0.79300000       0.56200000
    27  H          0.66250000       0.70700000       0.06200000
    28  H          0.33750000       0.20700000       0.43800000
    29  C          0.13349000       0.36253190       0.98936810
    30  C          0.86651000       0.86253190       0.51063190
    31  C          0.86651000       0.63746810       0.01063190
    32  C          0.13349000       0.13746810       0.48936810
    33  H          0.06020000       0.33220000       0.01960000
    34  H          0.93980000       0.83220000       0.48040000
    35  H          0.93980000       0.66780000       0.98040000
    36  H          0.06020000       0.16780000       0.51960000
    37  C          0.06518000       0.43152180      -0.00402170
    38  C          0.93482000       0.93152180       0.50402170
    39  C          0.93482000       0.56847820       0.00402170
    40  C          0.06518000       0.06847820       0.49597830
    41  C          0.90248000       0.45543170       0.04740170
    42  C          0.09752000       0.95543170       0.45259830
    43  C          0.09752000       0.54456830       0.95259830
    44  C          0.90248000       0.04456830       0.54740170
    45  C          0.80759000       0.40832180       0.09684180
    46  C          0.19241000       0.90832180       0.40315820
    47  C          0.19241000       0.59167820       0.90315820
    48  C          0.80759000       0.09167820       0.59684180
    49  H          0.67670000       0.37200000       0.08290000
    50  H          0.32330000       0.87200000       0.41710000
    51  H          0.32330000       0.62800000       0.91710000
    52  H          0.67670000       0.12800000       0.58290000
    53  C          0.89479000       0.41375180       0.15982180
    54  C          0.10521000       0.91375180       0.34017820
    55  C          0.10521000       0.58624820       0.84017820
    56  C          0.89479000       0.08624820       0.65982180
    57  H          0.02520000       0.45050000       0.17260000
    58  H         -0.02520000       0.95050000       0.32740000
    59  H         -0.02520000       0.54950000       0.82740000
    60  H          0.02520000       0.04950000       0.67260000
    61  C          0.81119000       0.36940180       0.21095170
    62  C          0.18881000       0.86940180       0.28904830
    63  C          0.18881000       0.63059820       0.78904830
    64  C          0.81119000       0.13059820       0.71095170
    65  C          0.95069000       0.37975180       0.27313190
    66  C          0.04931000       0.87975180       0.22686810
    67  C          0.04931000       0.62024820       0.72686810
    68  C          0.95069000       0.12024820       0.77313190
    69  H          0.08720000       0.41690000       0.27990000
    70  H          0.91280000       0.91690000       0.22010000
    71  H          0.91280000       0.58310000       0.72010000
    72  H          0.08720000       0.08310000       0.77990000
    73  C          0.71499000       0.28958190       0.31386190
    74  C          0.28501000       0.78958190       0.18613810
    75  C          0.28501000       0.71041810       0.68613810
    76  C          0.71499000       0.21041810       0.81386190
    77  H          0.68320000       0.26120000       0.34910000
    78  H          0.31680000       0.76120000       0.15090000
    79  H          0.31680000       0.73880000       0.65090000
    80  H          0.68320000       0.23880000       0.84910000
    81  C          0.55949000       0.27522180       0.25433180
    82  C          0.44051000       0.77522180       0.24566820
    83  C          0.44051000       0.72477820       0.74566820
    84  C          0.55949000       0.22477820       0.75433180
    85  H          0.42130000       0.23820000       0.24920000
    86  H          0.57870000       0.73820000       0.25080000
    87  H          0.57870000       0.76180000       0.75080000
    88  H          0.42130000       0.26180000       0.74920000
    89  C          0.60789000       0.31534180       0.20272180
    90  C          0.39211000       0.81534180       0.29727820
    91  C          0.39211000       0.68465820       0.79727820
    92  C          0.60789000       0.18465820       0.70272180
    93  H          0.50290000       0.30620000       0.16160000
    94  H          0.49710000       0.80620000       0.33840000
    95  H          0.49710000       0.69380000       0.83840000
    96  H          0.50290000       0.19380000       0.66160000
    97  N          0.90688000       0.34150150       0.32385160
    98  N          0.09312000       0.84150150       0.17614840
    99  N          0.09312000       0.65849850       0.67614840
   100  N          0.90688000       0.15849850       0.82385160
   101  C          0.46228000       0.37810170       0.53583180
   102  C          0.53772000       0.87810170       0.96416820
   103  C          0.53772000       0.62189830       0.46416820
   104  C          0.46228000       0.12189830       0.03583180
   105  C          0.43038000       0.43526170       0.57151180
   106  C          0.56962000       0.93526170       0.92848820
   107  C          0.56962000       0.56473830       0.42848820
   108  C          0.43038000       0.06473830       0.07151180
   109  C          0.58438000       0.44340180       0.63176180
   110  C          0.41562000       0.94340180       0.86823820
   111  C          0.41562000       0.55659820       0.36823820
   112  C          0.58438000       0.05659820       0.13176180
   113  C          0.78158000       0.39430180       0.65949180
   114  C          0.21842000       0.89430180       0.84050820
   115  C          0.21842000       0.60569820       0.34050820
   116  C          0.78158000       0.10569820       0.15949180
   117  C          0.82078000       0.33815180       0.62329190
   118  C          0.17922000       0.83815180       0.87670810
   119  C          0.17922000       0.66184820       0.37670810
   120  C          0.82078000       0.16184820       0.12329190
   121  C          0.65899000       0.32953170       0.56439180
   122  C          0.34101000       0.82953170       0.93560820
   123  C          0.34101000       0.67046830       0.43560820
   124  C          0.65899000       0.17046830       0.06439180
   125  F          0.24185000       0.48423100       0.54752110
   126  F          0.75815000       0.98423100       0.95247890
   127  F          0.75815000       0.51576900       0.45247890
   128  F          0.24185000       0.01576900       0.04752110
   129  F          0.53455000       0.49950100       0.66442100
   130  F          0.46545000      -0.00049900       0.83557900
   131  F          0.46545000       0.50049900       0.33557900
   132  F          0.53455000       0.00049900       0.16442100
   133  F          0.01945000       0.28970100       0.64676100
   134  F         -0.01945000       0.78970100       0.85323900
   135  F         -0.01945000       0.71029900       0.35323900
   136  F          0.01945000       0.21029900       0.14676100
   137  F          0.69775000       0.27176100       0.53336110
   138  F          0.30225000       0.77176100       0.96663890
   139  F          0.30225000       0.72823900       0.46663890
   140  F          0.69775000       0.22823900       0.03336110
   141  I          0.22445500       0.36538200       0.44438200
   142  I          0.77554500       0.86538200       0.05561800
   143  I          0.77554500       0.63461800       0.55561800
   144  I          0.22445500       0.13461800       0.94438200
   145  I          0.00082500       0.40458200       0.75201200
   146  I         -0.00082500       0.90458200       0.74798800
   147  I         -0.00082500       0.59541800       0.24798800
   148  I          0.00082500       0.09541800       0.25201200
