data_PAKJOC
_symmetry_space_group_name_H-M    'P1'
_symmetry_Int_Tables_number       1
loop_
_symmetry_equiv_pos_site_id
_symmetry_equiv_pos_as_xyz
1 x,y,z
_cell_length_a                   8.886101
_cell_length_b                   10.00772
_cell_length_c                   12.77463
_cell_angle_alpha                85.0982
_cell_angle_beta                 78.79301
_cell_angle_gamma                79.93001
loop_
_atom_site_label
_atom_site_type_symbol
_atom_site_fract_x
_atom_site_fract_y
_atom_site_fract_z
     1  S          0.11829700       0.57143700       0.11405400
     2  S          0.88170300       0.42856300       0.88594600
     3  S          0.73657600       0.92934600       0.52341400
     4  S          0.26342400       0.07065400       0.47658600
     5  O          0.69618180       0.39689180       0.29904120
     6  O          0.30381820       0.60310820       0.70095880
     7  O          0.65905170       0.37398160       0.13210120
     8  O          0.34094830       0.62601840       0.86789880
     9  O          0.65602000       0.71754180       0.24021140
    10  O          0.34398000       0.28245820       0.75978860
    11  O          0.42087170       0.84875160       0.27937120
    12  O          0.57912830       0.15124840       0.72062880
    13  N          0.86932000       0.45191190       0.14942140
    14  N          0.13068000       0.54808810       0.85057860
    15  H          0.88530000       0.45130000       0.08320000
    16  H          0.11470000       0.54870000       0.91680000
    17  N          0.95392000       0.49736180       0.30045130
    18  N          0.04608000       0.50263820       0.69954870
    19  H          0.87830000       0.46630000       0.33220000
    20  H          0.12170000       0.53370000       0.66780000
    21  N          0.84542000       0.75205190       0.36757150
    22  N          0.15458000       0.24794810       0.63242850
    23  H          0.81630000       0.72130000       0.31820000
    24  H          0.18370000       0.27870000       0.68180000
    25  N          0.59732000       0.86918190       0.37390150
    26  N          0.40268000       0.13081810       0.62609850
    27  H          0.51930000       0.92830000       0.40420000
    28  H          0.48070000       0.07170000       0.59580000
    29  C          0.54514000       0.17563000       0.21042000
    30  C          0.45486000       0.82437000       0.78958000
    31  H          0.60060000       0.12410000       0.14870000
    32  H          0.39940000       0.87590000       0.85130000
    33  H          0.44610000       0.14350000       0.23800000
    34  H          0.55390000       0.85650000       0.76200000
    35  H          0.60860000       0.16240000       0.26630000
    36  H          0.39140000       0.83760000       0.73370000
    37  C          0.51483000       0.32263000       0.17732000
    38  C          0.48517000       0.67737000       0.82268000
    39  H          0.44610000       0.33640000       0.12360000
    40  H          0.55390000       0.66360000       0.87640000
    41  H          0.46040000       0.37470000       0.24010000
    42  H          0.53960000       0.62530000       0.75990000
    43  C          0.73652000       0.40582000       0.20327160
    44  C          0.26348000       0.59418000       0.79672840
    45  C          0.97442000       0.50402000       0.19394160
    46  C          0.02558000       0.49598000       0.80605840
    47  C          0.04512000       0.55702000       0.35897150
    48  C          0.95488000       0.44298000       0.64102850
    49  C          0.18342000       0.48482000       0.38187160
    50  C          0.81658000       0.51518000       0.61812840
    51  H          0.21890000       0.39510000       0.35870000
    52  H          0.78110000       0.60490000       0.64130000
    53  C          0.27053000       0.54412000       0.43910170
    54  C          0.72947000       0.45588000       0.56089830
    55  H          0.36520000       0.49500000       0.45570000
    56  H          0.63480000       0.50500000       0.54430000
    57  C          0.21763000       0.67582000       0.47162170
    58  C          0.78237000       0.32418000       0.52837830
    59  H          0.27850000       0.71680000       0.50910000
    60  H          0.72150000       0.28320000       0.49090000
    61  C          0.07783000       0.74872000       0.45062160
    62  C          0.92217000       0.25128000       0.54937840
    63  H          0.04280000       0.83820000       0.47410000
    64  H          0.95720000       0.16180000       0.52590000
    65  C          0.98912000       0.68882000       0.39452150
    66  C          0.01088000       0.31118000       0.60547850
    67  C          0.73152000       0.84452000       0.41720160
    68  C          0.26848000       0.15548000       0.58279840
    69  C          0.56423000       0.80382000       0.29235170
    70  C          0.43577000       0.19618000       0.70764830
    71  C          0.36293000       0.77933000       0.20214180
    72  C          0.63707000       0.22067000       0.79785820
    73  H          0.24780000       0.79370000       0.21880000
    74  H          0.75220000       0.20630000       0.78120000
    75  H          0.40060000       0.68050000       0.20920000
    76  H          0.59940000       0.31950000       0.79080000
    77  C          0.41423000       0.82953000       0.09031190
    78  C          0.58577000       0.17047000       0.90968810
    79  H          0.38440000       0.92840000       0.08420000
    80  H          0.61560000       0.07160000       0.91580000
    81  H          0.36470000       0.78740000       0.04230000
    82  H          0.63530000       0.21260000       0.95770000
    83  H          0.52740000       0.80560000       0.07060000
    84  H          0.47260000       0.19440000       0.92940000
    85  C          0.96556000      -0.00703000       0.15022000
    86  C          0.03444000       0.00703000       0.84978000
    87  H          0.89950000       0.92600000       0.16490000
    88  H          0.10050000       0.07400000       0.83510000
    89  C          0.00365000       0.04974000       0.23522000
    90  C         -0.00365000       0.95026000       0.76478000
    91  H          0.96420000       0.02090000       0.30650000
    92  H          0.03580000       0.97910000       0.69350000
    93  C          0.09753000       0.14663000       0.21622000
    94  C          0.90247000       0.85337000       0.78378000
    95  H          0.12390000       0.18590000       0.27390000
    96  H          0.87610000       0.81410000       0.72610000
    97  C          0.15304000       0.18623000       0.11303000
    98  C          0.84696000       0.81377000       0.88697000
    99  H          0.21900000       0.25330000       0.09910000
   100  H          0.78100000       0.74670000       0.90090000
   101  C          0.11473000       0.13033000       0.02852000
   102  C          0.88527000       0.86967000       0.97148000
   103  H          0.15370000       0.16060000       0.95750000
   104  H          0.84630000       0.83940000       0.04250000
   105  C          0.02043000       0.03062000       0.04521180
   106  C          0.97957000       0.96938000       0.95478820
