data_PAMLUM
_symmetry_space_group_name_H-M    'P1'
_symmetry_Int_Tables_number       1
loop_
_symmetry_equiv_pos_site_id
_symmetry_equiv_pos_as_xyz
1 x,y,z
_cell_length_a                   5.64284
_cell_length_b                   9.77057
_cell_length_c                   10.40147
_cell_angle_alpha                100.8213
_cell_angle_beta                 103.7433
_cell_angle_gamma                93.7523
loop_
_atom_site_label
_atom_site_type_symbol
_atom_site_fract_x
_atom_site_fract_y
_atom_site_fract_z
     1  I          0.41081200       0.31381415       0.18891412
     2  I          0.58918800       0.68618585       0.81108588
     3  C          0.16664000       0.42312000       0.07397190
     4  C          0.83336000       0.57688000       0.92602810
     5  C          0.93376000       0.36312000       0.00042000
     6  C          0.06624000       0.63688000      -0.00042000
     7  F          0.86057000       0.22855150      -0.00302140
     8  F          0.13943000       0.77144850       0.00302140
     9  C          0.22954000       0.56232000       0.07142190
    10  C          0.77046000       0.43768000       0.92857810
    11  F          0.45323000       0.62777160       0.14069140
    12  F          0.54677000       0.37222840       0.85930860
    13  Br         0.75165400       0.97033800       0.14111200
    14  Br         0.24834600       0.02966200       0.85888800
    15  Br         0.77517400       0.40508200       0.56945200
    16  Br         0.22482600       0.59491800       0.43054800
    17  N          0.81073000       0.18532000       0.36444170
    18  N          0.18927000       0.81468000       0.63555830
    19  C          0.92004000       0.08302000       0.31108190
    20  C          0.07996000       0.91698000       0.68891810
    21  C          0.15494000       0.05032000       0.37642000
    22  C          0.84506000       0.94968000       0.62358000
    23  N          0.26704000       0.94708000       0.32042000
    24  N          0.73296000       0.05292000       0.67958000
    25  H          0.41460000       0.92960000       0.37730000
    26  H          0.58540000       0.07040000       0.62270000
    27  H          0.20260000       0.90060000       0.23330000
    28  H          0.79740000       0.09940000       0.76670000
    29  N          0.26483000       0.12432000       0.50118180
    30  N          0.73517000       0.87568000       0.49881820
    31  C          0.15374000       0.22832000       0.55572000
    32  C          0.84626000       0.77168000       0.44428000
    33  H          0.23090000       0.28210000       0.64370000
    34  H          0.76910000       0.71790000       0.35630000
    35  C          0.92894000       0.25982000       0.48742000
    36  C          0.07106000       0.74018000       0.51258000
