data_PAMWUX
_symmetry_space_group_name_H-M    'P1'
_symmetry_Int_Tables_number       1
loop_
_symmetry_equiv_pos_site_id
_symmetry_equiv_pos_as_xyz
1 x,y,z
_cell_length_a                   13.87525
_cell_length_b                   7.18383
_cell_length_c                   17.83018
_cell_angle_alpha                90.0
_cell_angle_beta                 99.9063
_cell_angle_gamma                90.0
loop_
_atom_site_label
_atom_site_type_symbol
_atom_site_fract_x
_atom_site_fract_y
_atom_site_fract_z
     1  C          0.62361130       0.64783000       0.13559110
     2  C          0.87638870       0.14783000       0.36440890
     3  C          0.37638870       0.35217000       0.86440890
     4  C          0.12361130       0.85217000       0.63559110
     5  C          0.52488130       0.60543000       0.15195100
     6  C          0.97511870       0.10543000       0.34804900
     7  C          0.47511870       0.39457000       0.84804900
     8  C          0.02488130       0.89457000       0.65195100
     9  C          0.49197130       0.55993000       0.21808100
    10  C          0.00802870       0.05993000       0.28191900
    11  C          0.50802870       0.44007000       0.78191900
    12  C         -0.00802870       0.94007000       0.71808100
    13  H          0.52910000       0.54410000       0.26630000
    14  H          0.97090000       0.04410000       0.23370000
    15  H          0.47090000       0.45590000       0.73370000
    16  H          0.02910000       0.95590000       0.76630000
    17  C          0.39066130       0.54272000       0.19722100
    18  C          0.10933870       0.04272000       0.30277900
    19  C          0.60933870       0.45728000       0.80277900
    20  C          0.89066130       0.95728000       0.69722100
    21  C          0.31767140       0.50323000       0.24639110
    22  C          0.18232860       0.00323000       0.25360890
    23  C          0.68232860       0.49677000       0.75360890
    24  C          0.81767140      -0.00323000       0.74639110
    25  H          0.43711600       0.65330000       0.04741400
    26  H          0.06288400       0.15330000       0.45258600
    27  H          0.56288400       0.34670000       0.95258600
    28  H          0.93711600       0.84670000       0.54741400
    29  H          0.17720000       0.48840000       0.24831600
    30  H          0.32280000      -0.01160000       0.25168400
    31  H          0.82280000       0.51160000       0.75168400
    32  H          0.67720000       0.01160000       0.74831600
    33  N          0.44459110       0.61312000       0.09713100
    34  N          0.05540890       0.11312000       0.40286900
    35  N          0.55540890       0.38688000       0.90286900
    36  N          0.94459110       0.88688000       0.59713100
    37  N          0.36173110       0.57722000       0.12307900
    38  N          0.13826890       0.07722000       0.37692100
    39  N          0.63826890       0.42278000       0.87692100
    40  N          0.86173110       0.92278000       0.62307900
    41  O          0.62614100       0.68222000       0.06538800
    42  O          0.87385900       0.18222000       0.43461200
    43  O          0.37385900       0.31778000       0.93461200
    44  O          0.12614100       0.81778000       0.56538800
    45  O          0.69454100       0.65052000       0.18691800
    46  O          0.80545900       0.15052000       0.31308200
    47  O          0.30545900       0.34948000       0.81308200
    48  O          0.19454100       0.84948000       0.68691800
    49  O          0.22791100       0.49372000       0.21017800
    50  O          0.27208900      -0.00628000       0.28982200
    51  O          0.77208900       0.50628000       0.78982200
    52  O          0.72791100       0.00628000       0.71017800
    53  O          0.34134100       0.48362000       0.31492800
    54  O          0.15865900      -0.01638000       0.18507200
    55  O          0.65865900       0.51638000       0.68507200
    56  O          0.84134100       0.01638000       0.81492800
    57  H          0.69691500       0.70740000       0.05661600
    58  H          0.80308500       0.20740000       0.44338400
    59  H          0.30308500       0.29260000       0.94338400
    60  H          0.19691500       0.79260000       0.55661600
    61  C          0.65735140       0.16913000       0.10560110
    62  C          0.84264860       0.66913000       0.39439890
    63  C          0.34264860       0.83087000       0.89439890
    64  C          0.15735140       0.33087000       0.60560110
    65  C          0.57284130       0.11412000       0.14381100
    66  C          0.92715870       0.61412000       0.35618900
    67  C          0.42715870       0.88588000       0.85618900
    68  C          0.07284130       0.38588000       0.64381100
    69  C          0.58364140       0.06543000       0.21989110
    70  C          0.91635860       0.56543000       0.28010890
    71  C          0.41635860       0.93457000       0.78010890
    72  C          0.08364140       0.43457000       0.71989110
    73  H          0.64540000       0.06330000       0.25010000
    74  H          0.85460000       0.56330000       0.24990000
    75  H          0.35460000       0.93670000       0.74990000
    76  H          0.14540000       0.43670000       0.75010000
    77  C          0.50194150       0.01993000       0.25057110
    78  C         -0.00194150       0.51993000       0.24942890
    79  C          0.49805850       0.98007000       0.74942890
    80  C          0.00194150       0.48007000       0.75057110
    81  H          0.51010000      -0.01300000       0.30170000
    82  H         -0.01010000       0.48700000       0.19830000
    83  H          0.48990000       0.01300000       0.69830000
    84  H          0.01010000       0.51300000       0.80170000
    85  C          0.40141140       0.06453000       0.13629120
    86  C          0.09858860       0.56453000       0.36370880
    87  C          0.59858860       0.93547000       0.86370880
    88  C          0.90141140       0.43547000       0.63629120
    89  H          0.33900000       0.06280000       0.10720000
    90  H          0.16100000       0.56280000       0.39280000
    91  H          0.66100000       0.93720000       0.89280000
    92  H          0.83900000       0.43720000       0.60720000
    93  C          0.47960140       0.11203000       0.10125110
    94  C          0.02039860       0.61203000       0.39874890
    95  C          0.52039860       0.88797000       0.89874890
    96  C          0.97960140       0.38797000       0.60125110
    97  H          0.46950000       0.14220000       0.04980000
    98  H          0.03050000       0.64220000       0.45020000
    99  H          0.53050000       0.85780000       0.95020000
   100  H          0.96950000       0.35780000       0.54980000
   101  H          0.80020000       0.22740000       0.12681400
   102  H          0.69980000       0.72740000       0.37318600
   103  H          0.19980000       0.77260000       0.87318600
   104  H          0.30020000       0.27260000       0.62681400
   105  H          0.75751600       0.16530000       0.20321400
   106  H          0.74248400       0.66530000       0.29678600
   107  H          0.24248400       0.83470000       0.79678600
   108  H          0.25751600       0.33470000       0.70321400
   109  N          0.74437130       0.18373000       0.14881110
   110  N          0.75562870       0.68373000       0.35118890
   111  N          0.25562870       0.81627000       0.85118890
   112  N          0.24437130       0.31627000       0.64881110
   113  N          0.41187120       0.02112000       0.20986100
   114  N          0.08812880       0.52112000       0.29013900
   115  N          0.58812880       0.97888000       0.79013900
   116  N          0.91187120       0.47888000       0.70986100
   117  O          0.64446110       0.19792000       0.03652800
   118  O          0.85553890       0.69792000       0.46347200
   119  O          0.35553890       0.80208000       0.96347200
   120  O          0.14446110       0.30208000       0.53652800
   121  C          0.08601130       0.75203000       0.98268900
   122  C          0.41398870       0.25203000       0.51731100
   123  C          0.91398870       0.24797000       0.01731100
   124  C          0.58601130       0.74797000       0.48268900
   125  C          0.98639120       0.75212000       0.00540100
   126  C          0.51360880       0.25212000       0.49459900
   127  C          0.01360880       0.24788000      -0.00540100
   128  C          0.48639120       0.74788000       0.50540100
   129  C          0.90843130       0.69373000       0.95114890
   130  C          0.59156870       0.19373000       0.54885110
   131  C          0.09156870       0.30627000       0.04885110
   132  C          0.40843130       0.80627000       0.45114890
   133  H          0.91830000       0.66310000       0.90230000
   134  H          0.58170000       0.16310000       0.59770000
   135  H          0.08170000       0.33690000       0.09770000
   136  H          0.41830000       0.83690000       0.40230000
   137  C          0.81660140       0.68113000       0.96976890
   138  C          0.68339860       0.18113000       0.53023110
   139  C          0.18339860       0.31887000       0.03023110
   140  C          0.31660140       0.81887000       0.46976890
   141  H          0.76520000       0.63840000       0.93340000
   142  H          0.73480000       0.13840000       0.56660000
   143  H          0.23480000       0.36160000       0.06660000
   144  H          0.26520000       0.86160000       0.43340000
   145  C          0.87327140       0.78833000       0.09081110
   146  C          0.62672860       0.28833000       0.40918890
   147  C          0.12672860       0.21167000       0.90918890
   148  C          0.37327140       0.71167000       0.59081110
   149  H          0.86080000       0.82190000       0.13860000
   150  H          0.63920000       0.32190000       0.36140000
   151  H          0.13920000       0.17810000       0.86140000
   152  H          0.36080000       0.67810000       0.63860000
   153  C          0.96709130       0.80213000       0.07659110
   154  C          0.53290870       0.30213000       0.42340890
   155  C          0.03290870       0.19787000       0.92340890
   156  C          0.46709130       0.69787000       0.57659110
   157  H          0.01720000       0.84440000       0.11420000
   158  H          0.48280000       0.34440000       0.38580000
   159  H          0.98280000       0.15560000       0.88580000
   160  H          0.51720000       0.65560000       0.61420000
   161  H          0.22251900       0.79330000       0.02121300
   162  H          0.27748100       0.29330000       0.47878700
   163  H          0.77748100       0.20670000       0.97878700
   164  H          0.72251900       0.70670000       0.52121300
   165  H          0.15641500       0.83430000       0.08261200
   166  H          0.34358500       0.33430000       0.41738800
   167  H          0.84358500       0.16570000       0.91738800
   168  H          0.65641500       0.66570000       0.58261200
   169  N          0.16266130       0.80023000       0.03397110
   170  N          0.33733870       0.30023000       0.46602890
   171  N          0.83733870       0.19977000       0.96602890
   172  N          0.66266130       0.69977000       0.53397110
   173  N          0.79919110       0.72832000       0.03827900
   174  N          0.70080890       0.22832000       0.46172100
   175  N          0.20080890       0.27168000       0.96172100
   176  N          0.29919110       0.77168000       0.53827900
   177  O          0.09302100       0.70432000       0.91757200
   178  O          0.40697900       0.20432000       0.58242800
   179  O          0.90697900       0.29568000       0.08242800
   180  O          0.59302100       0.79568000       0.41757200
