data_PAPFOB
_symmetry_space_group_name_H-M    'P1'
_symmetry_Int_Tables_number       1
loop_
_symmetry_equiv_pos_site_id
_symmetry_equiv_pos_as_xyz
1 x,y,z
_cell_length_a                   9.9902
_cell_length_b                   11.36101
_cell_length_c                   12.8544
_cell_angle_alpha                90.0
_cell_angle_beta                 94.5401
_cell_angle_gamma                90.0
loop_
_atom_site_label
_atom_site_type_symbol
_atom_site_fract_x
_atom_site_fract_y
_atom_site_fract_z
     1  C          0.62072000       0.08622000       0.24962000
     2  C          0.87928000       0.58622000       0.25038000
     3  C          0.37928000       0.91378000       0.75038000
     4  C          0.12072000       0.41378000       0.74962000
     5  C          0.51053000       0.06723000       0.16772000
     6  C         -0.01053000       0.56723000       0.33228000
     7  C          0.48947000       0.93277000       0.83228000
     8  C          0.01053000       0.43277000       0.66772000
     9  O          0.47112000       0.14132000       0.10472000
    10  O          0.02888000       0.64132000       0.39528000
    11  O          0.52888000       0.85868000       0.89528000
    12  O          0.97112000       0.35868000       0.60472000
    13  O          0.45902000       0.96078000       0.16832000
    14  O          0.04098000       0.46078000       0.33168000
    15  O          0.54098000       0.03922000       0.83168000
    16  O          0.95902000       0.53922000       0.66832000
    17  C          0.65923000      -0.00033000       0.32132000
    18  C          0.84077000       0.49967000       0.17868000
    19  C          0.34077000       0.00033000       0.67868000
    20  C          0.15923000       0.50033000       0.82132000
    21  C          0.76393000       0.01753000       0.39642000
    22  C          0.73607000       0.51753000       0.10358000
    23  C          0.23607000       0.98247000       0.60358000
    24  C          0.26393000       0.48247000       0.89642000
    25  C          0.83353000       0.12333000       0.40122000
    26  C          0.66647000       0.62333000       0.09878000
    27  C          0.16647000       0.87667000       0.59878000
    28  C          0.33353000       0.37667000       0.90122000
    29  N          0.93953000       0.14004000       0.47613000
    30  N          0.56047000       0.64004000       0.02387000
    31  N          0.06047000       0.85996000       0.52387000
    32  N          0.43953000       0.35996000       0.97613000
    33  C          0.79743000       0.20933000       0.32792000
    34  C          0.70257000       0.70933000       0.17208000
    35  C          0.20257000       0.79067000       0.67208000
    36  C          0.29743000       0.29067000       0.82792000
    37  C          0.69193000       0.19203000       0.25432000
    38  C          0.80807000       0.69203000       0.24568000
    39  C          0.30807000       0.80797000       0.74568000
    40  C          0.19193000       0.30797000       0.75432000
    41  H          0.39033600       0.95536800       0.11672800
    42  H          0.10966400       0.45536800       0.38327200
    43  H          0.60966400       0.04463200       0.88327200
    44  H          0.89033600       0.54463200       0.61672800
    45  H          0.61322600       0.92457400       0.31822100
    46  H          0.88677400       0.42457400       0.18177900
    47  H          0.38677400       0.07542600       0.68177900
    48  H          0.11322600       0.57542600       0.81822100
    49  H          0.78882700       0.95177300       0.44432200
    50  H          0.71117300       0.45177300       0.05567800
    51  H          0.21117300       0.04822700       0.55567800
    52  H          0.28882700       0.54822700       0.94432200
    53  H          0.96063200       0.21073300       0.49012600
    54  H          0.53936800       0.71073300       0.00987400
    55  H          0.03936800       0.78926700       0.50987400
    56  H          0.46063200       0.28926700      -0.00987400
    57  H          0.94264100       0.09844000       0.53853200
    58  H          0.55735900       0.59844000       0.96146800
    59  H          0.05735900       0.90156000       0.46146800
    60  H          0.44264100       0.40156000       0.03853200
    61  H          0.84642700       0.28072700       0.33342100
    62  H          0.65357300       0.78072700       0.16657900
    63  H          0.15357300       0.71927300       0.66657900
    64  H          0.34642700       0.21927300       0.83342100
    65  H          0.66642500       0.24962500       0.20432100
    66  H          0.83357500       0.74962500       0.29567900
    67  H          0.33357500       0.75037500       0.79567900
    68  H          0.16642500       0.25037500       0.70432100
    69  C          0.82483000       0.16453000       0.96988000
    70  C          0.67517000       0.66453000       0.53012000
    71  C          0.17517000       0.83547000       0.03012000
    72  C          0.32483000       0.33547000       0.46988000
    73  N          0.75072000       0.07082000       0.97098000
    74  N          0.74928000       0.57082000       0.52902000
    75  N          0.24928000       0.92918000       0.02902000
    76  N          0.25072000       0.42918000       0.47098000
    77  C          0.78633000      -0.01093000       0.04402000
    78  C          0.71367000       0.48907000       0.45598000
    79  C          0.21367000       0.01093000       0.95598000
    80  C          0.28633000       0.51093000       0.54402000
    81  C          0.89283000       0.00013000       0.11692000
    82  C          0.60717000       0.50013000       0.38308000
    83  C          0.10717000      -0.00013000       0.88308000
    84  C          0.39283000       0.49987000       0.61692000
    85  C          0.09093000       0.12903000       0.18432000
    86  C          0.40907000       0.62903000       0.31568000
    87  C          0.90907000       0.87097000       0.81568000
    88  C          0.59093000       0.37097000       0.68432000
    89  N          0.13993000       0.04853000       0.26862000
    90  N          0.36007000       0.54853000       0.23138000
    91  N          0.86007000       0.95147000       0.73138000
    92  N          0.63993000       0.45147000       0.76862000
    93  O          0.09433000       0.95077000       0.27332000
    94  O          0.40567000       0.45077000       0.22668000
    95  O          0.90567000       0.04923000       0.72668000
    96  O          0.59433000       0.54923000       0.77332000
    97  O          0.22723000       0.08422000       0.33202000
    98  O          0.27277000       0.58422000       0.16798000
    99  O          0.77277000       0.91578000       0.66798000
   100  O          0.72723000       0.41578000       0.83202000
   101  C          0.16233000       0.22883000       0.17322000
   102  C          0.33767000       0.72883000       0.32678000
   103  C          0.83767000       0.77117000       0.82678000
   104  C          0.66233000       0.27117000       0.67322000
   105  C          0.12483000       0.30993000       0.09572000
   106  C          0.37517000       0.80993000       0.40428000
   107  C          0.87517000       0.69007000       0.90428000
   108  C          0.62483000       0.19007000       0.59572000
   109  C          0.01553000       0.28953000       0.02982000
   110  C          0.48447000       0.78953000       0.47018000
   111  C          0.98447000       0.71047000       0.97018000
   112  C          0.51553000       0.21047000       0.52982000
   113  C          0.93843000       0.18623000       0.03922000
   114  C          0.56157000       0.68623000       0.46078000
   115  C          0.06157000       0.81377000       0.96078000
   116  C          0.43843000       0.31377000       0.53922000
   117  C          0.97512000       0.10062000       0.11692000
   118  C          0.52488000       0.60062000       0.38308000
   119  C          0.02488000       0.89938000       0.88308000
   120  C          0.47512000       0.39938000       0.61692000
   121  H          0.79312600       0.22502600       0.92087900
   122  H          0.70687400       0.72502600       0.57912100
   123  H          0.20687400       0.77497400       0.07912100
   124  H          0.29312600       0.27497400       0.42087900
   125  H          0.73162400       0.91827600       0.04171800
   126  H          0.76837600       0.41827600       0.45828200
   127  H          0.26837600       0.08172400       0.95828200
   128  H          0.23162400       0.58172400       0.54171800
   129  H          0.91322400       0.94087600       0.16992000
   130  H          0.58677600       0.44087600       0.33008000
   131  H          0.08677600       0.05912400       0.83008000
   132  H          0.41322400       0.55912400       0.66992000
   133  H          0.24162900       0.24242700       0.22062200
   134  H          0.25837100       0.74242700       0.27937800
   135  H          0.75837100       0.75757300       0.77937800
   136  H          0.74162900       0.25757300       0.72062200
   137  H          0.17802700       0.37932700       0.09162100
   138  H          0.32197300       0.87932700       0.40837900
   139  H          0.82197300       0.62067300       0.90837900
   140  H          0.67802700       0.12067300       0.59162100
   141  H         -0.00937500       0.33852600       0.97427900
   142  H          0.50937500       0.83852600       0.52572100
   143  H          0.00937500       0.66147400       0.02572100
   144  H          0.49062500       0.16147400       0.47427900
