data_PATBIZ
_symmetry_space_group_name_H-M    'P1'
_symmetry_Int_Tables_number       1
loop_
_symmetry_equiv_pos_site_id
_symmetry_equiv_pos_as_xyz
1 x,y,z
_cell_length_a                   11.5219612
_cell_length_b                   19.2078818
_cell_length_c                   15.9071414
_cell_angle_alpha                90.0
_cell_angle_beta                 101.48089
_cell_angle_gamma                90.0
loop_
_atom_site_label
_atom_site_type_symbol
_atom_site_fract_x
_atom_site_fract_y
_atom_site_fract_z
     1  P          0.38671400       0.66352200       0.35050300
     2  P          0.61328600       0.16352200       0.14949700
     3  P          0.61328600       0.33647800       0.64949700
     4  P          0.38671400       0.83647800       0.85050300
     5  F          0.32637100       0.62955600       0.42005700
     6  F          0.67362900       0.12955600       0.07994300
     7  F          0.67362900       0.37044400       0.57994300
     8  F          0.32637100       0.87044400       0.92005700
     9  F          0.64329100       0.49175700       0.19987800
    10  F          0.35670900       0.99175700       0.30012200
    11  F          0.35670900       0.50824300       0.80012200
    12  F          0.64329100       0.00824300       0.69987800
    13  F          0.52553110       0.43437700       0.10170800
    14  F          0.47446890       0.93437700       0.39829200
    15  F          0.47446890       0.56562300       0.89829200
    16  F          0.52553110       0.06562300       0.60170800
    17  F          0.57199120       0.54050700       0.07901900
    18  F          0.42800880       0.04050700       0.42098100
    19  F          0.42800880       0.45949300       0.92098100
    20  F          0.57199120       0.95949300       0.57901900
    21  F          0.08505120       0.44388800       0.19475800
    22  F          0.91494880       0.94388800       0.30524200
    23  F          0.91494880       0.55611200       0.80524200
    24  F          0.08505120       0.05611200       0.69475800
    25  F          0.02928110       0.54428700       0.13983100
    26  F          0.97071890       0.04428700       0.36016900
    27  F          0.97071890       0.45571300       0.86016900
    28  F          0.02928110       0.95571300       0.63983100
    29  F          0.09876110       0.46738700       0.06523800
    30  F          0.90123890       0.96738700       0.43476200
    31  F          0.90123890       0.53261300       0.93476200
    32  F          0.09876110       0.03261300       0.56523800
    33  F          0.11872150       0.87014800       0.48256110
    34  F          0.88127850       0.37014800       0.01743890
    35  F          0.88127850       0.12985200       0.51743890
    36  F          0.11872150       0.62985200       0.98256110
    37  F          0.19284150       0.95682700       0.42726100
    38  F          0.80715850       0.45682700       0.07273900
    39  F          0.80715850       0.04317300       0.57273900
    40  F          0.19284150       0.54317300       0.92726100
    41  F          0.30595140       0.88871900       0.51406900
    42  F          0.69404860       0.38871900       0.98593100
    43  F          0.69404860       0.11128100       0.48593100
    44  F          0.30595140       0.61128100       0.01406900
    45  F          0.01545150       0.86322100       0.13591110
    46  F          0.98454850       0.36322100       0.36408890
    47  F          0.98454850       0.13677900       0.86408890
    48  F          0.01545150       0.63677900       0.63591110
    49  F          0.18214170       0.88298900       0.10102100
    50  F          0.81785830       0.38298900       0.39897900
    51  F          0.81785830       0.11701100       0.89897900
    52  F          0.18214170       0.61701100       0.60102100
    53  F          0.10642160       0.78067800       0.08528900
    54  F          0.89357840       0.28067800       0.41471100
    55  F          0.89357840       0.21932200       0.91471100
    56  F          0.10642160       0.71932200       0.58528900
    57  F          0.71851130       0.85342700       0.50204900
    58  F          0.28148870       0.35342700      -0.00204900
    59  F          0.28148870       0.14657300       0.49795100
    60  F          0.71851130       0.64657300       0.00204900
    61  F          0.88604130       0.80243800       0.50693120
    62  F          0.11395870       0.30243800      -0.00693120
    63  F          0.11395870       0.19756200       0.49306880
    64  F          0.88604130       0.69756200       0.00693120
    65  F          0.77987140       0.83458700       0.38694900
    66  F          0.22012860       0.33458700       0.11305100
    67  F          0.22012860       0.16541300       0.61305100
    68  F          0.77987140       0.66541300       0.88694900
    69  F          0.78824170       0.55327100       0.60761100
    70  F          0.21175830       0.05327100       0.89238900
    71  F          0.21175830       0.44672900       0.39238900
    72  F          0.78824170       0.94672900       0.10761100
    73  F          0.87641130       0.54045800       0.50453100
    74  F          0.12358870       0.04045800      -0.00453100
    75  F          0.12358870       0.45954200       0.49546900
    76  F          0.87641130       0.95954200       0.00453100
    77  F          0.70771170       0.49332800       0.49832170
    78  F          0.29228830      -0.00667200       0.00167830
    79  F          0.29228830       0.50667200       0.50167830
    80  F          0.70771170       0.00667200      -0.00167830
    81  C          0.36517160       0.60044900       0.26723110
    82  C          0.63482840       0.10044900       0.23276890
    83  C          0.63482840       0.39955100       0.73276890
    84  C          0.36517160       0.89955100       0.76723110
    85  C          0.46113160       0.57519900       0.23474110
    86  C          0.53886840       0.07519900       0.26525890
    87  C          0.53886840       0.42480100       0.76525890
    88  C          0.46113160       0.92480100       0.73474110
    89  H          0.53670000       0.59320000       0.25380000
    90  H          0.46330000       0.09320000       0.24620000
    91  H          0.46330000       0.40680000       0.74620000
    92  H          0.53670000       0.90680000       0.75380000
    93  C          0.44168160       0.52282900       0.17364110
    94  C          0.55831840       0.02282900       0.32635890
    95  C          0.55831840       0.47717100       0.82635890
    96  C          0.44168160       0.97717100       0.67364110
    97  C          0.32907170       0.49654900       0.14345110
    98  C          0.67092830      -0.00345100       0.35654890
    99  C          0.67092830       0.50345100       0.85654890
   100  C          0.32907170       0.00345100       0.64345110
   101  H          0.31710000       0.46160000       0.10210000
   102  H          0.68290000       0.96160000       0.39790000
   103  H          0.68290000       0.53840000       0.89790000
   104  H          0.31710000       0.03840000       0.60210000
   105  C          0.23410160       0.52281100       0.17556110
   106  C          0.76589840       0.02281100       0.32443890
   107  C          0.76589840       0.47718900       0.82443890
   108  C          0.23410160       0.97718900       0.67556110
   109  C          0.25101160       0.57409100       0.23802110
   110  C          0.74898840       0.07409100       0.26197890
   111  C          0.74898840       0.42590900       0.76197890
   112  C          0.25101160       0.92590900       0.73802110
   113  H          0.18750000       0.59080000       0.26020000
   114  H          0.81250000       0.09080000       0.23980000
   115  H          0.81250000       0.40920000       0.73980000
   116  H          0.18750000       0.90920000       0.76020000
   117  C          0.54571170       0.49703100       0.13820120
   118  C          0.45428830      -0.00296900       0.36179880
   119  C          0.45428830       0.50296900       0.86179880
   120  C          0.54571170       0.00296900       0.63820120
   121  C          0.11097170       0.49456110       0.14365130
   122  C          0.88902830      -0.00543890       0.35634870
   123  C          0.88902830       0.50543890       0.85634870
   124  C          0.11097170       0.00543890       0.64365130
   125  C          0.30678150       0.74170900       0.32524110
   126  C          0.69321850       0.24170900       0.17475890
   127  C          0.69321850       0.25829100       0.67475890
   128  C          0.30678150       0.75829100       0.82524110
   129  C          0.29527160       0.78482100       0.39378110
   130  C          0.70472840       0.28482100       0.10621890
   131  C          0.70472840       0.21517900       0.60621890
   132  C          0.29527160       0.71517900       0.89378110
   133  H          0.33190000       0.77350000       0.44960000
   134  H          0.66810000       0.27350000       0.05040000
   135  H          0.66810000       0.22650000       0.55040000
   136  H          0.33190000       0.72650000       0.94960000
   137  C          0.22799160       0.84501100       0.37670120
   138  C          0.77200840       0.34501100       0.12329880
   139  C          0.77200840       0.15498900       0.62329880
   140  C          0.22799160       0.65498900       0.87670120
   141  C          0.17225160       0.86182100       0.29341130
   142  C          0.82774840       0.36182100       0.20658870
   143  C          0.82774840       0.13817900       0.70658870
   144  C          0.17225160       0.63817900       0.79341130
   145  H          0.12760000       0.90240000       0.28260000
   146  H          0.87240000       0.40240000       0.21740000
   147  H          0.87240000       0.09760000       0.71740000
   148  H          0.12760000       0.59760000       0.78260000
   149  C          0.18373170       0.81766110       0.22668120
   150  C          0.81626830       0.31766110       0.27331880
   151  C          0.81626830       0.18233890       0.77331880
   152  C          0.18373170       0.68233890       0.72668120
   153  C          0.25087160       0.75737100       0.24136120
   154  C          0.74912840       0.25737100       0.25863880
   155  C          0.74912840       0.24262900       0.75863880
   156  C          0.25087160       0.74262900       0.74136120
   157  H          0.25840000       0.72800000       0.19630000
   158  H          0.74160000       0.22800000       0.30370000
   159  H          0.74160000       0.27200000       0.80370000
   160  H          0.25840000       0.77200000       0.69630000
   161  C          0.21147180       0.89041110       0.45034140
   162  C          0.78852820       0.39041110       0.04965860
   163  C          0.78852820       0.10958890       0.54965860
   164  C          0.21147180       0.60958890       0.95034140
   165  C          0.12242000       0.83595130       0.13687150
   166  C          0.87758000       0.33595130       0.36312850
   167  C          0.87758000       0.16404870       0.86312850
   168  C          0.12242000       0.66404870       0.63687150
   169  C          0.53731160       0.67181900       0.40238110
   170  C          0.46268840       0.17181900       0.09761890
   171  C          0.46268840       0.32818100       0.59761890
   172  C          0.53731160       0.82818100       0.90238110
   173  C          0.59631160       0.73505900       0.40963110
   174  C          0.40368840       0.23505900       0.09036890
   175  C          0.40368840       0.26494100       0.59036890
   176  C          0.59631160       0.76494100       0.90963110
   177  H          0.55850000       0.77520000       0.38550000
   178  H          0.44150000       0.27520000       0.11450000
   179  H          0.44150000       0.22480000       0.61450000
   180  H          0.55850000       0.72480000       0.88550000
   181  C          0.71345160       0.73722900       0.45378110
   182  C          0.28654840       0.23722900       0.04621890
   183  C          0.28654840       0.26277100       0.54621890
   184  C          0.71345160       0.76277100       0.95378110
   185  C          0.77061160       0.67764100       0.48917110
   186  C          0.22938840       0.17764100       0.01082890
   187  C          0.22938840       0.32235900       0.51082890
   188  C          0.77061160       0.82235900       0.98917110
   189  H          0.84910000       0.67970000       0.51800000
   190  H          0.15090000       0.17970000       0.98200000
   191  H          0.15090000       0.32030000       0.48200000
   192  H          0.84910000       0.82030000       0.01800000
   193  C          0.70981170       0.61453100       0.48136120
   194  C          0.29018830       0.11453100       0.01863880
   195  C          0.29018830       0.38546900       0.51863880
   196  C          0.70981170       0.88546900       0.98136120
   197  C          0.59290170       0.61119100       0.43883110
   198  C          0.40709830       0.11119100       0.06116890
   199  C          0.40709830       0.38880900       0.56116890
   200  C          0.59290170       0.88880900       0.93883110
   201  H          0.55190000       0.56920000       0.43450000
   202  H          0.44810000       0.06920000       0.06550000
   203  H          0.44810000       0.43080000       0.56550000
   204  H          0.55190000       0.93080000       0.93450000
   205  C          0.77551170       0.80655100       0.46393120
   206  C          0.22448830       0.30655100       0.03606880
   207  C          0.22448830       0.19344900       0.53606880
   208  C          0.77551170       0.69344900       0.96393120
   209  C          0.76989190       0.55010110       0.52267150
   210  C          0.23010810       0.05010110       0.97732850
   211  C          0.23010810       0.44989890       0.47732850
   212  C          0.76989190       0.94989890       0.02267150
   213  S          0.50415500       0.76327300       0.14494300
   214  S          0.49584500       0.26327300       0.35505700
   215  S          0.49584500       0.23672700       0.85505700
   216  S          0.50415500       0.73672700       0.64494300
   217  F          0.51396170       0.89736800       0.11194100
   218  F          0.48603830       0.39736800       0.38805900
   219  F          0.48603830       0.10263200       0.88805900
   220  F          0.51396170       0.60263200       0.61194100
   221  F          0.63376160       0.86411900       0.22550120
   222  F          0.36623840       0.36411900       0.27449880
   223  F          0.36623840       0.13588100       0.77449880
   224  F          0.63376160       0.63588100       0.72550120
   225  F          0.44919160       0.87344800       0.22598100
   226  F          0.55080840       0.37344800       0.27401900
   227  F          0.55080840       0.12655200       0.77401900
   228  F          0.44919160       0.62655200       0.72598100
   229  O          0.50583130       0.72727700       0.22510800
   230  O          0.49416870       0.22727700       0.27489200
   231  O          0.49416870       0.27272300       0.77489200
   232  O          0.50583130       0.77272300       0.72510800
   233  O          0.60327190       0.74915100       0.10542110
   234  O          0.39672810       0.24915100       0.39457890
   235  O          0.39672810       0.25084900       0.89457890
   236  O          0.60327190       0.75084900       0.60542110
   237  O          0.38967170       0.76467900       0.08818900
   238  O          0.61032830       0.26467900       0.41181100
   239  O          0.61032830       0.23532100       0.91181100
   240  O          0.38967170       0.73532100       0.58818900
   241  C          0.52642000       0.85406120       0.17865140
   242  C          0.47358000       0.35406120       0.32134860
   243  C          0.47358000       0.14593880       0.82134860
   244  C          0.52642000       0.64593880       0.67865140
   245  F          0.90173000       0.51946100       0.29843160
   246  F          0.09827000       0.01946100       0.20156840
   247  F          0.09827000       0.48053900       0.70156840
   248  F          0.90173000       0.98053900       0.79843160
   249  C          0.91563000       0.58946140       0.30143180
   250  C          0.08437000       0.08946140       0.19856820
   251  C          0.08437000       0.41053860       0.69856820
   252  C          0.91563000       0.91053860       0.80143180
   253  C          0.84413000       0.62962170       0.24180180
   254  C          0.15587000       0.12962170       0.25819820
   255  C          0.15587000       0.37037830       0.75819820
   256  C          0.84413000       0.87037830       0.74180180
   257  H          0.78700000       0.60950000       0.19920000
   258  H          0.21300000       0.10950000       0.30080000
   259  H          0.21300000       0.39050000       0.80080000
   260  H          0.78700000       0.89050000       0.69920000
   261  C          0.85903000       0.70053180       0.24652000
   262  C          0.14097000       0.20053180       0.25348000
   263  C          0.14097000       0.29946820       0.75348000
   264  C          0.85903000       0.79946820       0.74652000
   265  H          0.81110000       0.72910000       0.20670000
   266  H          0.18890000       0.22910000       0.29330000
   267  H          0.18890000       0.27090000       0.79330000
   268  H          0.81110000       0.77090000       0.70670000
   269  C          0.94403000       0.72959150       0.30942000
   270  C          0.05597000       0.22959150       0.19058000
   271  C          0.05597000       0.27040850       0.69058000
   272  C          0.94403000       0.77040850       0.80942000
   273  H          0.95390000       0.77770000       0.31200000
   274  H          0.04610000       0.27770000       0.18800000
   275  H          0.04610000       0.22230000       0.68800000
   276  H          0.95390000       0.72230000       0.81200000
   277  C          0.01432000       0.68796170       0.36834170
   278  C         -0.01432000       0.18796170       0.13165830
   279  C         -0.01432000       0.31203830       0.63165830
   280  C          0.01432000       0.81203830       0.86834170
   281  H          0.07160000       0.70820000       0.41080000
   282  H          0.92840000       0.20820000       0.08920000
   283  H          0.92840000       0.29180000       0.58920000
   284  H          0.07160000       0.79180000       0.91080000
   285  C          0.00182000       0.61698160       0.36584170
   286  C         -0.00182000       0.11698160       0.13415830
   287  C         -0.00182000       0.38301840       0.63415830
   288  C          0.00182000       0.88301840       0.86584170
   289  H          0.04930000       0.58850000       0.40580000
   290  H          0.95070000       0.08850000       0.09420000
   291  H          0.95070000       0.41150000       0.59420000
   292  H          0.04930000       0.91150000       0.90580000
