data_PATCAS
_symmetry_space_group_name_H-M    'P1'
_symmetry_Int_Tables_number       1
loop_
_symmetry_equiv_pos_site_id
_symmetry_equiv_pos_as_xyz
1 x,y,z
_cell_length_a                   8.059303
_cell_length_b                   18.097197
_cell_length_c                   18.210366
_cell_angle_alpha                90.0
_cell_angle_beta                 90.0
_cell_angle_gamma                90.0
loop_
_atom_site_label
_atom_site_type_symbol
_atom_site_fract_x
_atom_site_fract_y
_atom_site_fract_z
     1  P          0.74783500       0.46897300       0.65578200
     2  P          0.75216500       0.53102700       0.15578200
     3  P          0.25216500       0.96897300       0.84421800
     4  P          0.24783500       0.03102700       0.34421800
     5  F          0.90081140       0.51279600       0.67956600
     6  F          0.59918860       0.48720400       0.17956600
     7  F          0.09918860       0.01279600       0.82043400
     8  F          0.40081140       0.98720400       0.32043400
     9  F          0.09842140       0.41933700       0.61441700
    10  F          0.40157860       0.58066300       0.11441700
    11  F          0.90157860       0.91933700       0.88558300
    12  F          0.59842140       0.08066300       0.38558300
    13  F          0.18257190       0.32839700       0.50408900
    14  F          0.31742810       0.67160300       0.00408900
    15  F          0.81742810       0.82839700      -0.00408900
    16  F          0.68257190       0.17160300       0.49591100
    17  F          0.94692000       0.27574900       0.41266800
    18  F          0.55308000       0.72425100       0.91266800
    19  F          0.05308000       0.77574900       0.08733200
    20  F          0.44692000       0.22425100       0.58733200
    21  F          0.62292000       0.30923800       0.43379800
    22  F          0.87708000       0.69076200       0.93379800
    23  F          0.37708000       0.80923800       0.06620200
    24  F          0.12292000       0.19076200       0.56620200
    25  F          0.53404150       0.39357700       0.55022800
    26  F          0.96595850       0.60642300       0.05022800
    27  F          0.46595850       0.89357700       0.94977200
    28  F          0.03404150       0.10642300       0.44977200
    29  F          0.37214140       0.48143600       0.68308700
    30  F          0.12785860       0.51856400       0.18308700
    31  F          0.62785860       0.98143600       0.81691300
    32  F          0.87214140       0.01856400       0.31691300
    33  F          0.16381140       0.57803700       0.61891700
    34  F          0.33618860       0.42196300       0.11891700
    35  F          0.83618860       0.07803700       0.88108300
    36  F          0.66381140       0.92196300       0.38108300
    37  F          0.28096150       0.68018700       0.52478700
    38  F          0.21903850       0.31981300       0.02478700
    39  F          0.71903850       0.18018700       0.97521300
    40  F          0.78096150       0.81981300       0.47521300
    41  F          0.60858160       0.68681700       0.49205700
    42  F          0.89141840       0.31318300       0.99205700
    43  F          0.39141840       0.18681700       0.00794300
    44  F          0.10858160       0.81318300       0.50794300
    45  F          0.82099150       0.59129700       0.55692600
    46  F          0.67900850       0.40870300       0.05692600
    47  F          0.17900850       0.09129700       0.94307400
    48  F          0.32099150       0.90870300       0.44307400
    49  F          0.69751160       0.53727700       0.79664600
    50  F          0.80248840       0.46272300       0.29664600
    51  F          0.30248840       0.03727700       0.70335400
    52  F          0.19751160       0.96272300       0.20335400
    53  F          0.60729170       0.47500800       0.92533600
    54  F          0.89270830       0.52499200       0.42533600
    55  F          0.39270830       0.97500800       0.57466400
    56  F          0.10729170       0.02499200       0.07466400
    57  F          0.54049170       0.32770800       0.93037700
    58  F          0.95950830       0.67229200       0.43037700
    59  F          0.45950830       0.82770800       0.56962300
    60  F          0.04049170       0.17229200       0.06962300
    61  F          0.56571160       0.24362700       0.80887700
    62  F          0.93428840       0.75637300       0.30887700
    63  F          0.43428840       0.74362700       0.69112300
    64  F          0.06571160       0.25637300       0.19112300
    65  F          0.64417150       0.30580700       0.67931600
    66  F          0.85582850       0.69419300       0.17931600
    67  F          0.35582850       0.80580700       0.82068400
    68  F          0.14417150       0.19419300       0.32068400
    69  C          0.81322000       0.41072100       0.58337100
    70  C          0.68678000       0.58927900       0.08337100
    71  C          0.18678000       0.91072100       0.91662900
    72  C          0.31322000       0.08927900       0.41662900
    73  C          0.97993000       0.39314110       0.57116110
    74  C          0.52007000       0.60685890       0.07116110
    75  C          0.02007000       0.89314110       0.92883890
    76  C          0.47993000       0.10685890       0.42883890
    77  C          0.02463000       0.34723120       0.51377130
    78  C          0.47537000       0.65276880       0.01377130
    79  C          0.97537000       0.84723120       0.98622870
    80  C          0.52463000       0.15276880       0.48622870
    81  C          0.90413000       0.31993120       0.46762120
    82  C          0.59587000       0.68006880       0.96762120
    83  C          0.09587000       0.81993120       0.03237880
    84  C          0.40413000       0.18006880       0.53237880
    85  C          0.73793000       0.33688110       0.47820110
    86  C          0.76207000       0.66311890       0.97820110
    87  C          0.26207000       0.83688110       0.02179890
    88  C          0.23793000       0.16311890       0.52179890
    89  C          0.69373000       0.38104110       0.53668110
    90  C          0.80627000       0.61895890       0.03668110
    91  C          0.30627000       0.88104110       0.96331890
    92  C          0.19373000       0.11895890       0.46331890
    93  C          0.60332000       0.53473100       0.62269900
    94  C          0.89668000       0.46526900       0.12269900
    95  C          0.39668000       0.03473100       0.87730100
    96  C          0.10332000       0.96526900       0.37730100
    97  C          0.43332000       0.53242100       0.63799100
    98  C          0.06668000       0.46757900       0.13799100
    99  C          0.56668000       0.03242100       0.86200900
   100  C          0.93332000       0.96757900       0.36200900
   101  C          0.32552000       0.58167100       0.60540100
   102  C          0.17448000       0.41832900       0.10540100
   103  C          0.67448000       0.08167100       0.89459900
   104  C          0.82552000       0.91832900       0.39459900
   105  C          0.38503000       0.63402100       0.55665100
   106  C          0.11497000       0.36597900       0.05665100
   107  C          0.61497000       0.13402100       0.94334900
   108  C          0.88503000       0.86597900       0.44334900
   109  C          0.55343000       0.63737100       0.54003100
   110  C          0.94657000       0.36262900       0.04003100
   111  C          0.44657000       0.13737100       0.95996900
   112  C          0.05343000       0.86262900       0.45996900
   113  C          0.65992000       0.58815100       0.57296100
   114  C          0.84008000       0.41184900       0.07296100
   115  C          0.34008000       0.08815100       0.92703900
   116  C          0.15992000       0.91184900       0.42703900
   117  C          0.67852000       0.42281110       0.73524100
   118  C          0.82148000       0.57718890       0.23524100
   119  C          0.32148000       0.92281110       0.76475900
   120  C          0.17852000       0.07718890       0.26475900
   121  C          0.66632000       0.46497110       0.79950100
   122  C          0.83368000       0.53502890       0.29950100
   123  C          0.33368000       0.96497110       0.70049900
   124  C          0.16632000       0.03502890       0.20049900
   125  C          0.62082000       0.43363120       0.86535100
   126  C          0.87918000       0.56636880       0.36535100
   127  C          0.37918000       0.93363120       0.63464900
   128  C          0.12082000       0.06636880       0.13464900
   129  C          0.58772000       0.35852120       0.86760110
   130  C          0.91228000       0.64147880       0.36760110
   131  C          0.41228000       0.85852120       0.63239890
   132  C          0.08772000       0.14147880       0.13239890
   133  C          0.59992000       0.31553120       0.80527110
   134  C          0.90008000       0.68446880       0.30527110
   135  C          0.40008000       0.81553120       0.69472890
   136  C          0.09992000       0.18446880       0.19472890
   137  C          0.64232000       0.34747110       0.73897110
   138  C          0.85768000       0.65252890       0.23897110
   139  C          0.35768000       0.84747110       0.76102890
   140  C          0.14232000       0.15252890       0.26102890
   141  S          0.39524600       0.69184300       0.25033300
   142  S          0.10475400       0.30815700       0.75033300
   143  S          0.60475400       0.19184300       0.24966700
   144  S          0.89524600       0.80815700       0.74966700
   145  F          0.31442000       0.75157900       0.37556800
   146  F          0.18558000       0.24842100       0.87556800
   147  F          0.68558000       0.25157900       0.12443200
   148  F          0.81442000       0.74842100       0.62443200
   149  F          0.56172000       0.77762900       0.33842900
   150  F          0.93828000       0.22237100       0.83842900
   151  F          0.43828000       0.27762900       0.16157100
   152  F          0.06172000       0.72237100       0.66157100
   153  F          0.35052000       0.82928800       0.28776900
   154  F          0.14948000       0.17071200       0.78776900
   155  F          0.64948000       0.32928800       0.21223100
   156  F          0.85052000       0.67071200       0.71223100
   157  O          0.46642000       0.62947900       0.29434100
   158  O          0.03358000       0.37052100       0.79434100
   159  O          0.53358000       0.12947900       0.20565900
   160  O          0.96642000       0.87052100       0.70565900
   161  H          0.39240000       0.60980000       0.31830000
   162  H          0.10760000       0.39020000       0.81830000
   163  H          0.60760000       0.10980000       0.18170000
   164  H          0.89240000       0.89020000       0.68170000
   165  O          0.50705190       0.71204900       0.19311900
   166  O         -0.00705190       0.28795100       0.69311900
   167  O          0.49294810       0.21204900       0.30688100
   168  O          0.00705190       0.78795100       0.80688100
   169  O          0.22302190       0.68297900       0.23462900
   170  O          0.27697810       0.31702100       0.73462900
   171  O          0.77697810       0.18297900       0.26537100
   172  O          0.72302190       0.81702100       0.76537100
   173  C          0.40683000       0.76708120       0.31684130
   174  C          0.09317000       0.23291880       0.81684130
   175  C          0.59317000       0.26708120       0.18315870
   176  C          0.90683000       0.73291880       0.68315870
   177  S          0.34149600       0.49720300       0.41128300
   178  S          0.15850400       0.50279700       0.91128300
   179  S          0.65850400      -0.00279700       0.08871700
   180  S          0.84149600       0.00279700       0.58871700
   181  F          0.34352000       0.35941700       0.36883800
   182  F          0.15648000       0.64058300       0.86883800
   183  F          0.65648000       0.85941700       0.13116200
   184  F          0.84352000       0.14058300       0.63116200
   185  F          0.12974170       0.42095900       0.33398800
   186  F          0.37025830       0.57904100       0.83398800
   187  F          0.87025830       0.92095900       0.16601200
   188  F          0.62974170       0.07904100       0.66601200
   189  F          0.36542000       0.43819100       0.28120700
   190  F          0.13458000       0.56180900       0.78120700
   191  F          0.63458000       0.93819100       0.21879300
   192  F          0.86542000       0.06180900       0.71879300
   193  O          0.27362000       0.56352900       0.37268100
   194  O          0.22638000       0.43647100       0.87268100
   195  O          0.72638000       0.06352900       0.12731900
   196  O          0.77362000       0.93647100       0.62731900
   197  O          0.51892000       0.49828100       0.41632900
   198  O          0.98108000       0.50171900       0.91632900
   199  O          0.48108000      -0.00171900       0.08367100
   200  O          0.01892000       0.00171900       0.58367100
   201  O          0.24692000       0.48056800       0.47538800
   202  O          0.25308000       0.51943200       0.97538800
   203  O          0.75308000       0.98056800       0.02461200
   204  O          0.74692000       0.01943200       0.52461200
   205  C          0.29323000       0.42419120       0.34512120
   206  C          0.20677000       0.57580880       0.84512120
   207  C          0.70677000       0.92419120       0.15487880
   208  C          0.79323000       0.07580880       0.65487880
