data_PAVGOK
_symmetry_space_group_name_H-M    'P1'
_symmetry_Int_Tables_number       1
loop_
_symmetry_equiv_pos_site_id
_symmetry_equiv_pos_as_xyz
1 x,y,z
_cell_length_a                   3.68426
_cell_length_b                   7.58165
_cell_length_c                   12.451101
_cell_angle_alpha                78.25801
_cell_angle_beta                 85.30101
_cell_angle_gamma                82.54701
loop_
_atom_site_label
_atom_site_type_symbol
_atom_site_fract_x
_atom_site_fract_y
_atom_site_fract_z
     1  O          0.80192000       0.10266100       0.37597600
     2  O          0.19808000       0.89733900       0.62402400
     3  H          0.75340000       0.20956000       0.34651100
     4  H          0.24660000       0.79044000       0.65348900
     5  O          0.02502000       0.22804100       0.50208600
     6  O         -0.02502000       0.77195900       0.49791400
     7  C          0.95573000       0.09891140       0.46785800
     8  C          0.04427000       0.90108860       0.53214200
     9  N          0.61373000       0.43796120       0.27800800
    10  N          0.38627000       0.56203880       0.72199200
    11  N          0.14193000       0.12502130       0.09513800
    12  N          0.85807000       0.87497870       0.90486200
    13  C          0.53103000       0.75440150       0.28546900
    14  C          0.46897000       0.24559850       0.71453100
    15  H          0.55450000       0.84610000       0.32310000
    16  H          0.44550000       0.15390000       0.67690000
    17  C          0.47593000       0.47781150       0.17793900
    18  C          0.52407000       0.52218850       0.82206100
    19  H          0.45920000       0.38350000       0.14170000
    20  H          0.54080000       0.61650000       0.85830000
    21  C          0.38483000       0.79346140       0.18234900
    22  C          0.61517000       0.20653860       0.81765100
    23  C          0.64043000       0.57355150       0.33014900
    24  C          0.35957000       0.42644850       0.66985100
    25  H          0.73620000       0.54550000       0.39920000
    26  H          0.26380000       0.45450000       0.60080000
    27  C          0.35783000       0.65365140       0.12654900
    28  C          0.64217000       0.34634860       0.87345100
    29  H          0.26380000       0.67770000       0.05730000
    30  H          0.73620000       0.32230000       0.94270000
    31  C          0.25323000       0.97886140       0.13355900
    32  C          0.74677000       0.02113860       0.86644100
