data_PAVKUU
_symmetry_space_group_name_H-M    'P1'
_symmetry_Int_Tables_number       1
loop_
_symmetry_equiv_pos_site_id
_symmetry_equiv_pos_as_xyz
1 x,y,z
_cell_length_a                   8.34833
_cell_length_b                   13.83546
_cell_length_c                   17.98138
_cell_angle_alpha                90.8104
_cell_angle_beta                 92.8414
_cell_angle_gamma                96.0904
loop_
_atom_site_label
_atom_site_type_symbol
_atom_site_fract_x
_atom_site_fract_y
_atom_site_fract_z
     1  S          0.43065500       0.79681300       0.28848200
     2  S          0.56934500       0.20318700       0.71151800
     3  O          0.31284150       0.85129900       0.25216700
     4  O          0.68715850       0.14870100       0.74783300
     5  O          0.42294150       0.69500900       0.27420700
     6  O          0.57705850       0.30499100       0.72579300
     7  N          0.43974150       0.81078900       0.50370700
     8  N          0.56025850       0.18921100       0.49629300
     9  N          0.40684170       0.81744110       0.37704800
    10  N          0.59315830       0.18255890       0.62295200
    11  N          0.55850160       0.69806900       0.42680700
    12  N          0.44149840       0.30193100       0.57319300
    13  N          0.07042000      -0.00516850       0.22870100
    14  N          0.92958000       0.00516850       0.77129900
    15  C          0.47352180       0.77249110       0.43760900
    16  C          0.52647820       0.22750890       0.56239100
    17  C          0.60735190       0.65360120       0.48885900
    18  C          0.39264810       0.34639880       0.51114100
    19  C          0.57292000       0.68510120       0.55886100
    20  C          0.42708000       0.31489880       0.44113900
    21  C          0.49003190       0.76604120       0.56539900
    22  C          0.50996810       0.23395880       0.43460100
    23  C          0.62082000       0.85296130       0.26962900
    24  C          0.37918000       0.14703870       0.73037100
    25  C          0.74862000       0.79910130       0.25577100
    26  C          0.25138000       0.20089870       0.74422900
    27  C          0.89742000       0.84640130       0.24231100
    28  C          0.10258000       0.15359870       0.75768900
    29  C          0.92422000       0.94797130       0.24233900
    30  C          0.07578000       0.05202870       0.75766100
    31  C          0.69822000       0.56738130       0.47789110
    32  C          0.30178000       0.43261870       0.52210890
    33  C          0.79292000       0.00111130       0.25553100
    34  C          0.20708000      -0.00111130       0.74446900
    35  C          0.64572000       0.95425130       0.26920100
    36  C          0.35428000       0.04574870       0.73079900
    37  C          0.45442000       0.80788130       0.63896900
    38  C          0.54558000       0.19211870       0.36103100
    39  H          0.37020000       0.87021500       0.38531100
    40  H          0.62980000       0.12978500       0.61468900
    41  H          0.60500000       0.65250000       0.60100000
    42  H          0.39500000       0.34750000       0.39900000
    43  H          0.73330000       0.73150000       0.25560000
    44  H          0.26670000       0.26850000       0.74440000
    45  H         -0.01790000       0.81010000       0.23300000
    46  H          0.01790000       0.18990000       0.76700000
    47  H          0.08420000       0.05881700       0.22881100
    48  H          0.91580000       0.94118300       0.77118900
    49  H          0.14830000       0.96541900       0.23221400
    50  H          0.85170000       0.03458100       0.76778600
    51  H          0.78950000       0.58540000       0.44870000
    52  H          0.21050000       0.41460000       0.55130000
    53  H          0.62880000       0.51630000       0.45250000
    54  H          0.37120000       0.48370000       0.54750000
    55  H          0.73470000       0.54500000       0.52550000
    56  H          0.26530000       0.45500000       0.47450000
    57  H          0.80690000       0.06870000       0.25490000
    58  H          0.19310000       0.93130000       0.74510000
    59  H          0.56060000      -0.00970000       0.27840000
    60  H          0.43940000       0.00970000       0.72160000
    61  H          0.53220000       0.86250000       0.65170000
    62  H          0.46780000       0.13750000       0.34830000
    63  H          0.46000000       0.75940000       0.67640000
    64  H          0.54000000       0.24060000       0.32360000
    65  H          0.34820000       0.82870000       0.63610000
    66  H          0.65180000       0.17130000       0.36390000
    67  S          0.82454500       0.68304300       0.76744200
    68  S          0.17545500       0.31695700       0.23255800
    69  O          0.68139140       0.63072900       0.73454600
    70  O          0.31860860       0.36927100       0.26545400
    71  O          0.86553150       0.78235800       0.74704600
    72  O          0.13446850       0.21764200       0.25295400
    73  N          0.70460190       0.53427110       0.88061800
    74  N          0.29539810       0.46572890       0.11938200
    75  N          0.80838180       0.69373110       0.85831800
    76  N          0.19161820       0.30626890       0.14168200
    77  N          0.84663170       0.63531100       0.97601700
    78  N          0.15336830       0.36468900       0.02398300
    79  N          0.39172000       0.47448140       0.72035120
    80  N          0.60828000       0.52551860       0.27964880
    81  C          0.78502000       0.61641120       0.90656900
    82  C          0.21498000       0.38358880       0.09343100
    83  C          0.82062000       0.56378140       0.02567100
    84  C          0.17938000       0.43621860       0.97432900
    85  C          0.73583000       0.47662140       0.00405100
    86  C          0.26417000       0.52337860      -0.00405100
    87  C          0.68013000       0.46280140       0.93033100
    88  C          0.31987000       0.53719860       0.06966900
    89  C         -0.01184810       0.61767120       0.75446900
    90  C          0.01184810       0.38232880       0.24553100
    91  C          0.97062000       0.52772120       0.71686900
    92  C          0.02938000       0.47227880       0.28313100
    93  C          0.10442000       0.48082130       0.70492900
    94  C          0.89558000       0.51917870       0.29507100
    95  C          0.25932000       0.52095120       0.73000100
    96  C          0.74068000       0.47904880       0.26999900
    97  C          0.88903000       0.58491160       0.10348110
    98  C          0.11097000       0.41508840       0.89651890
    99  C          0.27442000       0.61104130       0.76910100
   100  C          0.72558000       0.38895870       0.23089900
   101  C          0.14152000       0.65878120       0.78025900
   102  C          0.85848000       0.34121880       0.21974100
   103  C          0.59144000       0.36946160       0.90160130
   104  C          0.40856000       0.63053840       0.09839870
   105  H          0.86420000       0.74801600       0.87551100
   106  H          0.13580000       0.25198400       0.12448900
   107  H          0.71600000       0.42760000       0.03830000
   108  H          0.28400000       0.57240000       0.96170000
   109  H          0.86880000       0.49980000       0.70000000
   110  H          0.13120000       0.50020000       0.30000000
   111  H          0.09190000       0.42120000       0.67960000
   112  H          0.90810000       0.57880000       0.32040000
   113  H          0.38720000       0.42191600       0.69361100
   114  H          0.61280000       0.57808400       0.30638900
   115  H          0.48330000       0.50161600       0.73371200
   116  H          0.51670000       0.49838400       0.26628800
   117  H         -0.01150000       0.62640000       0.10210000
   118  H          0.01150000       0.37360000       0.89790000
   119  H          0.90850000       0.52510000       0.12700000
   120  H          0.09150000       0.47490000       0.87300000
   121  H          0.81370000       0.61680000       0.13120000
   122  H          0.18630000       0.38320000       0.86880000
   123  H          0.37560000       0.63830000       0.78750000
   124  H          0.62440000       0.36170000       0.21250000
   125  H          0.15340000       0.71870000       0.80510000
   126  H          0.84660000       0.28130000       0.19490000
   127  H          0.51600000       0.38240000       0.86190000
   128  H          0.48400000       0.61760000       0.13810000
   129  H          0.53450000       0.33770000       0.94110000
   130  H          0.46550000       0.66230000       0.05890000
   131  H          0.66680000       0.32820000       0.88330000
   132  H          0.33320000       0.67180000       0.11670000
   133  O          0.28879150       0.96896900       0.52899600
   134  O          0.71120850       0.03103100       0.47100400
   135  O          0.28175160      -0.01003100       0.40610700
   136  O          0.71824840       0.01003100       0.59389300
   137  O          0.86069830       0.36383100       0.56806800
   138  O          0.13930170       0.63616900       0.43193200
   139  O          0.83684820       0.37390100       0.44819800
   140  O          0.16315180       0.62609900       0.55180200
   141  N          0.88383830       0.33583110       0.50508900
   142  N          0.11616170       0.66416890       0.49491100
   143  C          0.14838180       0.09566110       0.48052900
   144  C          0.85161820       0.90433890       0.51947100
   145  C          0.11102000       0.12500120       0.55148900
   146  C          0.88898000       0.87499880       0.44851100
   147  C          0.02212000       0.20285120       0.55982100
   148  C          0.97788000       0.79714880       0.44017900
   149  C          0.97292810       0.24986110       0.49670100
   150  C          0.02707190       0.75013890       0.50329900
   151  C          0.00612000       0.22156120       0.42589100
   152  C         -0.00612000       0.77843880       0.57410900
   153  C          0.09432000       0.14346120       0.41817900
   154  C          0.90568000       0.85653880       0.58182100
   155  C          0.24604190       0.01288120       0.46862900
   156  C          0.75395810       0.98711880       0.53137100
   157  H          0.14570000       0.09230000       0.59310000
   158  H          0.85430000       0.90770000       0.40690000
   159  H         -0.00410000       0.22310000       0.60680000
   160  H          0.00410000       0.77690000       0.39320000
   161  H          0.97000000       0.25410000       0.38440000
   162  H          0.03000000       0.74590000       0.61560000
   163  H          0.11770000       0.12260000       0.37090000
   164  H          0.88230000       0.87740000       0.62910000
   165  H          0.34330000       0.91421900       0.51711400
   166  H          0.65670000       0.08578100       0.48288600
   167  O          0.05367180       0.78479110       0.02329700
   168  O          0.94632820       0.21520890       0.97670300
   169  O          0.02623170       0.85230100       0.91233700
   170  O          0.97376830       0.14769900       0.08766300
   171  O          0.53222000       0.24767120       0.05689900
   172  O          0.46778000       0.75232880       0.94310100
   173  O          0.56382000       0.17003120       0.15790100
   174  O          0.43618000       0.82996880       0.84209900
   175  N          0.50702000       0.17635120       0.09470100
   176  N          0.49298000       0.82364880       0.90529900
   177  C          0.19642000       0.93775130       0.00653900
   178  C          0.80358000       0.06224870      -0.00653900
   179  C          0.27152000       0.93354140       0.07650100
   180  C          0.72848000       0.06645860       0.92349900
   181  C          0.37382000       0.01145140       0.10513110
   182  C          0.62618000       0.98854860       0.89486890
   183  C          0.39762000       0.09326130       0.06304100
   184  C          0.60238000       0.90673870       0.93695900
   185  C          0.32502000       0.09989140      -0.00687890
   186  C          0.67498000       0.90010860       0.00687890
   187  C          0.22402000       0.02123140       0.96483100
   188  C          0.77598000       0.97876860       0.03516900
   189  C          0.08442000       0.85434130       0.97541100
   190  C          0.91558000       0.14565870       0.02458900
   191  H          0.25300000       0.87780000       0.10440000
   192  H          0.74700000       0.12220000       0.89560000
   193  H          0.42550000       0.00870000       0.15190000
   194  H          0.57450000      -0.00870000       0.84810000
   195  H          0.34360000       0.15610000       0.96560000
   196  H          0.65640000       0.84390000       0.03440000
   197  H          0.17400000       0.02400000       0.91760000
   198  H          0.82600000       0.97600000       0.08240000
   199  H          0.97630000       0.73220000       0.00091500
   200  H          0.02370000       0.26780000      -0.00091500
