data_PAVRAG
_symmetry_space_group_name_H-M    'P1'
_symmetry_Int_Tables_number       1
loop_
_symmetry_equiv_pos_site_id
_symmetry_equiv_pos_as_xyz
1 x,y,z
_cell_length_a                   7.2664
_cell_length_b                   12.1683
_cell_length_c                   17.6284
_cell_angle_alpha                100.33
_cell_angle_beta                 90.792
_cell_angle_gamma                104.64
loop_
_atom_site_label
_atom_site_type_symbol
_atom_site_fract_x
_atom_site_fract_y
_atom_site_fract_z
     1  B          0.05468000       0.02344000       0.33763000
     2  B          0.94532000       0.97656000       0.66237000
     3  F          0.92086000       0.91738000       0.31429150
     4  F          0.07914000       0.08262000       0.68570850
     5  F          0.13404000       0.02672000       0.41046120
     6  F          0.86596000       0.97328000       0.58953880
     7  N          0.95965000       0.12343000       0.34004170
     8  N          0.04035000       0.87657000       0.65995830
     9  N          0.21265000       0.03953000       0.28009170
    10  N          0.78735000       0.96047000       0.71990830
    11  C          0.88604000       0.28533000       0.31482000
    12  C          0.11396000       0.71467000       0.68518000
    13  C          0.41576000       0.11543000       0.19442000
    14  C          0.58424000       0.88457000       0.80558000
    15  C          0.76384000       0.24044000       0.36812000
    16  C          0.23616000       0.75956000       0.63188000
    17  C          0.45976000       0.01593000       0.20842000
    18  C          0.54024000       0.98407000       0.79158000
    19  C          0.81234000       0.14124000       0.38242000
    20  C          0.18766000       0.85876000       0.61758000
    21  C          0.33266000       0.97127000       0.26172000
    22  C          0.66734000       0.02873000       0.73828000
    23  C          0.00916000       0.21163000       0.29702000
    24  C         -0.00916000       0.78837000       0.70298000
    25  C          0.25926000       0.12983000       0.23912000
    26  C          0.74074000       0.87017000       0.76088000
    27  C          0.87933000       0.39084000       0.28303000
    28  C          0.12067000       0.60916000       0.71697000
    29  H         -0.02290000       0.45600000       0.30930000
    30  H          0.02290000       0.54400000       0.69070000
    31  H          0.75700000       0.40620000       0.29050000
    32  H          0.24300000       0.59380000       0.70950000
    33  H          0.89990000       0.37780000       0.22880000
    34  H          0.10010000       0.62220000       0.77120000
    35  C          0.52116000       0.19074000       0.14203000
    36  C          0.47884000       0.80926000       0.85797000
    37  H          0.64520000       0.17770000       0.13530000
    38  H          0.35480000       0.82230000       0.86470000
    39  H          0.53380000       0.27050000       0.16430000
    40  H          0.46620000       0.72950000       0.83570000
    41  H          0.45160000       0.17230000       0.09260000
    42  H          0.54840000       0.82770000       0.90740000
    43  C          0.61343000       0.29155000       0.40713000
    44  C          0.38657000       0.70845000       0.59287000
    45  H          0.51800000       0.23080000       0.42400000
    46  H          0.48200000       0.76920000       0.57600000
    47  H          0.55120000       0.32260000       0.37020000
    48  H          0.44880000       0.67740000       0.62980000
    49  C          0.69509000       0.38686000       0.47634000
    50  C          0.30491000       0.61314000       0.52366000
    51  H          0.74780000       0.35500000       0.51490000
    52  H          0.25220000       0.64500000       0.48510000
    53  H          0.59580000       0.41980000       0.49730000
    54  H          0.40420000       0.58020000       0.50270000
    55  H          0.79340000       0.44560000       0.46030000
    56  H          0.20660000       0.55440000       0.53970000
    57  C          0.60976000       0.96236000       0.17173000
    58  C          0.39024000       0.03764000       0.82827000
    59  H          0.62620000       0.90290000       0.19910000
    60  H          0.37380000       0.09710000       0.80090000
    61  H          0.72990000       0.02110000       0.17690000
    62  H          0.27010000       0.97890000       0.82310000
    63  C          0.56167000       0.90966000       0.08723000
    64  C          0.43833000       0.09034000       0.91277000
    65  H          0.43840000       0.85550000       0.08120000
    66  H          0.56160000       0.14450000       0.91880000
    67  H          0.65560000       0.87040000       0.06820000
    68  H          0.34440000       0.12960000       0.93180000
    69  H          0.56030000       0.96960000       0.05860000
    70  H          0.43970000       0.03040000       0.94140000
    71  C          0.71783000       0.06234000       0.43463000
    72  C          0.28217000       0.93766000       0.56537000
    73  H          0.79820000       0.07540000       0.48080000
    74  H          0.20180000       0.92460000       0.51920000
    75  H          0.69690000       0.98340000       0.40860000
    76  H          0.30310000       0.01660000       0.59140000
    77  H          0.59790000       0.07770000       0.44790000
    78  H          0.40210000       0.92230000       0.55210000
    79  C          0.32317000       0.86546000       0.29473000
    80  C          0.67683000       0.13454000       0.70527000
    81  H          0.26350000       0.87200000       0.34300000
    82  H          0.73650000       0.12800000       0.65700000
    83  H          0.44970000       0.85780000       0.30310000
    84  H          0.55030000       0.14220000       0.69690000
    85  H          0.25010000       0.79870000       0.25940000
    86  H          0.74990000       0.20130000       0.74060000
    87  C          0.15785000       0.21403000       0.24732000
    88  C          0.84215000       0.78597000       0.75268000
    89  C          0.20915000       0.30993000       0.20272000
    90  C          0.79085000       0.69007000       0.79728000
    91  C          0.31416000       0.41823000       0.23972000
    92  C          0.68584000       0.58177000       0.76028000
    93  H          0.35240000       0.42960000       0.29170000
    94  H          0.64760000       0.57040000       0.70830000
    95  C          0.36296000       0.50923000       0.20152000
    96  C          0.63704000       0.49077000       0.79848000
    97  H          0.43280000       0.58120000       0.22800000
    98  H          0.56720000       0.41880000       0.77200000
    99  C          0.30905000       0.49513000       0.12332000
   100  C          0.69095000       0.50487000       0.87668000
   101  C          0.35666000       0.58744000       0.08113000
   102  C          0.64334000       0.41256000       0.91887000
   103  H          0.42260000       0.66070000       0.10700000
   104  H          0.57740000       0.33930000       0.89300000
   105  C          0.30996000       0.57234000       0.00653000
   106  C          0.69004000       0.42766000      -0.00653000
   107  H          0.34320000       0.63510000       0.98150000
   108  H          0.65680000       0.36490000       0.01850000
   109  C          0.20866000       0.46104000       0.96298000
   110  C          0.79134000       0.53896000       0.03702000
   111  C          0.16637000       0.43955000       0.88377000
   112  C          0.83363000       0.56045000       0.11623000
   113  H          0.19990000       0.50000000       0.85690000
   114  H          0.80010000       0.50000000       0.14310000
   115  C          0.07737000       0.33216000       0.84477000
   116  C          0.92263000       0.66784000       0.15523000
   117  H          0.05500000       0.31980000       0.79150000
   118  H          0.94500000       0.68020000       0.20850000
   119  C          0.01876000       0.24015000       0.88288000
   120  C         -0.01876000       0.75985000       0.11712000
   121  H          0.95600000       0.16730000       0.85520000
   122  H          0.04400000       0.83270000       0.14480000
   123  C          0.05385000       0.25644000       0.96298000
   124  C          0.94615000       0.74356000       0.03702000
   125  C         -0.00185000       0.16523000       0.00512000
   126  C          0.00185000       0.83477000      -0.00512000
   127  H          0.92920000       0.09260000       0.97920000
   128  H          0.07080000       0.90740000       0.02080000
   129  C          0.04305000       0.18133000       0.08152000
   130  C          0.95695000       0.81867000       0.91848000
   131  H          0.00310000       0.11980000       0.10730000
   132  H         -0.00310000       0.88020000       0.89270000
   133  C          0.15315000       0.36723000       0.00322000
   134  C          0.84685000       0.63277000      -0.00322000
   135  C          0.20395000       0.38503000       0.08392000
   136  C          0.79605000       0.61497000       0.91608000
   137  C          0.15105000       0.29133000       0.12402000
   138  C          0.84895000       0.70867000       0.87598000
   139  C          0.15621000       0.24146000       0.54414000
   140  C          0.84379000       0.75854000       0.45586000
   141  H          0.02800000       0.21390000       0.55830000
   142  H          0.97200000       0.78610000       0.44170000
   143  H          0.20600000       0.17670000       0.52430000
   144  H          0.79400000       0.82330000       0.47570000
   145  H          0.15680000       0.28730000       0.50510000
   146  H          0.84320000       0.71270000       0.49490000
   147  N          0.27131300       0.30988000       0.61005000
   148  N          0.72868700       0.69012000       0.38995000
   149  O          0.20220000       0.36308000       0.64845000
   150  O          0.79780000       0.63692000       0.35155000
   151  O          0.42101200       0.27718000       0.60906000
   152  O          0.57898800       0.72282000       0.39094000
