data_PAVYIU
_symmetry_space_group_name_H-M    'P1'
_symmetry_Int_Tables_number       1
loop_
_symmetry_equiv_pos_site_id
_symmetry_equiv_pos_as_xyz
1 x,y,z
_cell_length_a                   6.15335
_cell_length_b                   7.17386
_cell_length_c                   14.5841
_cell_angle_alpha                98.3131
_cell_angle_beta                 90.1982
_cell_angle_gamma                93.6572
loop_
_atom_site_label
_atom_site_type_symbol
_atom_site_fract_x
_atom_site_fract_y
_atom_site_fract_z
     1  S          0.34002700       0.22880600       0.35627300
     2  S          0.65997300       0.77119400       0.64372700
     3  O          0.42462000       0.42562000       0.37228100
     4  O          0.57538000       0.57438000       0.62771900
     5  O          0.10322000       0.21082000       0.36596900
     6  O          0.89678000       0.78918000       0.63403100
     7  O          0.45182000       0.11062000       0.41160100
     8  O          0.54818000       0.88938000       0.58839900
     9  C          0.39413000       0.14633000       0.23843130
    10  C          0.60587000       0.85367000       0.76156870
    11  C          0.59773000       0.18623000       0.20232150
    12  C          0.40227000       0.81377000       0.79767850
    13  H          0.70933000       0.25323000       0.24134150
    14  H          0.29067000       0.74677000       0.75865850
    15  C          0.63783000       0.12883000       0.10999150
    16  C          0.36217000       0.87117000       0.89000850
    17  H          0.77753000       0.15793000       0.08622150
    18  H          0.22247000       0.84207000       0.91377850
    19  C          0.47863000       0.02903000       0.05034130
    20  C          0.52137000       0.97097000       0.94965870
    21  C          0.27723000      -0.01413000       0.08900150
    22  C          0.72277000       0.01413000       0.91099850
    23  H          0.16693000       0.91467000       0.05083150
    24  H          0.83307000       0.08533000       0.94916850
    25  C          0.23423000       0.04463000       0.18169140
    26  C          0.76577000       0.95537000       0.81830860
    27  H          0.09533000       0.01513000       0.20610140
    28  H          0.90467000      -0.01513000       0.79389860
    29  C          0.96137000       0.73073000       0.41075130
    30  C          0.03863000       0.26927000       0.58924870
    31  N          0.17723000       0.75372000       0.41423130
    32  N          0.82277000       0.24628000       0.58576870
    33  H          0.25563000       0.65612000       0.41662130
    34  H          0.74437000       0.34388000       0.58337870
    35  H          0.24203000       0.86672000       0.41415130
    36  H          0.75797000       0.13328000       0.58584870
    37  N          0.86627000       0.55992000       0.41092120
    38  N          0.13373000       0.44008000       0.58907880
    39  H          0.72337000       0.54302000       0.40824120
    40  H          0.27663000       0.45698000       0.59175880
    41  H          0.94597000       0.46322000       0.41371120
    42  H          0.05403000       0.53678000       0.58628880
    43  N          0.84557000       0.87882000       0.40660120
    44  N          0.15443000       0.12118000       0.59339880
    45  H          0.70247000       0.86472000       0.40389120
    46  H          0.29753000       0.13528000       0.59610880
    47  H          0.91177000      -0.00878000       0.40656120
    48  H          0.08823000       0.00878000       0.59343880
    49  C          0.89757000       0.53587000      -0.00826150
    50  C          0.10243000       0.46413000       0.00826150
    51  C          0.77746000       0.61717000       0.06832000
    52  C          0.22254000       0.38283000       0.93168000
    53  H          0.64106000       0.66637000       0.05812000
    54  H          0.35894000       0.33363000       0.94188000
    55  C          0.85586000       0.62557000       0.15692000
    56  C          0.14414000       0.37443000       0.84308000
    57  H          0.77356000       0.67997000       0.20772000
    58  H          0.22644000       0.32003000       0.79228000
    59  C          0.05774000       0.55386000       0.17292000
    60  C          0.94226000       0.44614000       0.82708000
    61  H          0.11084000       0.55996000       0.23452000
    62  H          0.88916000       0.44004000       0.76548000
    63  C          0.82216000       0.52437000       0.89918000
    64  C          0.17784000       0.47563000       0.10082000
    65  H          0.68596000       0.57177000       0.88718000
    66  H          0.31404000       0.42823000       0.11282000
