data_PAWKOP
_symmetry_space_group_name_H-M    'P1'
_symmetry_Int_Tables_number       1
loop_
_symmetry_equiv_pos_site_id
_symmetry_equiv_pos_as_xyz
1 x,y,z
_cell_length_a                   8.4395
_cell_length_b                   10.1338
_cell_length_c                   12.3049
_cell_angle_alpha                91.85814
_cell_angle_beta                 94.59917
_cell_angle_gamma                90.00914
loop_
_atom_site_label
_atom_site_type_symbol
_atom_site_fract_x
_atom_site_fract_y
_atom_site_fract_z
     1  C          0.59587160       0.02460140       0.74346900
     2  C          0.40412840       0.97539860       0.25653100
     3  C          0.58993160       0.13501130       0.82771900
     4  C          0.41006840       0.86498870       0.17228100
     5  C          0.48388150       0.12628130       0.90861900
     6  C          0.51611850       0.87371870       0.09138100
     7  H          0.41530000       0.05190000       0.90900000
     8  H          0.58470000       0.94810000       0.09100000
     9  C          0.47801160       0.22626130      -0.01100100
    10  C          0.52198840       0.77373870       0.01100100
    11  C          0.57738170       0.33635140       0.98659890
    12  C          0.42261830       0.66364860       0.01340110
    13  H          0.57450000       0.40430000       0.04140000
    14  H          0.42550000       0.59570000       0.95860000
    15  C          0.68042180       0.34716140       0.90456880
    16  C          0.31957820       0.65283860       0.09543120
    17  H          0.74580000       0.42320000       0.90240000
    18  H          0.25420000       0.57680000       0.09760000
    19  C          0.68748170       0.24595140       0.82558890
    20  C          0.31251830       0.75404860       0.17441110
    21  H          0.75890000       0.25250000       0.77010000
    22  H          0.24110000       0.74750000       0.22990000
    23  C          0.35934160       0.21816140       0.07316110
    24  C          0.64065840       0.78183860       0.92683890
    25  O          0.72388120       0.01992100       0.69351200
    26  O          0.27611880       0.98007900       0.30648800
    27  O          0.48067120       0.94790900       0.72747200
    28  O          0.51932880       0.05209100       0.27252800
    29  O          0.38017130       0.30395110       0.15297800
    30  O          0.61982870       0.69604890       0.84702200
    31  O          0.24967120       0.13580100       0.06142800
    32  O          0.75032880       0.86419900       0.93857200
    33  C          0.88244840       0.80121130       0.53099110
    34  C          0.11755160       0.19878870       0.46900890
    35  C          0.88805850       0.71996130       0.42712100
    36  C          0.11194150       0.28003870       0.57287900
    37  C          0.01076160       0.62967130       0.41715110
    38  C         -0.01076160       0.37032870       0.58284890
    39  H          0.08990000       0.62040000       0.47580000
    40  H          0.91010000       0.37960000       0.52420000
    41  C          0.01843160       0.55276130       0.32181110
    42  C          0.98156840       0.44723870       0.67818890
    43  C          0.90292830       0.56792140       0.23523110
    44  C          0.09707170       0.43207860       0.76476890
    45  H          0.90840000       0.51670000       0.16960000
    46  H          0.09160000       0.48330000       0.83040000
    47  C          0.78058820       0.65736150       0.24494110
    48  C          0.21941180       0.34263850       0.75505890
    49  H          0.70210000       0.66730000       0.18600000
    50  H          0.29790000       0.33270000       0.81400000
    51  C          0.77225830       0.73288140       0.34092110
    52  C          0.22774170       0.26711860       0.65907890
    53  H          0.68730000       0.79340000       0.34760000
    54  H          0.31270000       0.20660000       0.65240000
    55  C          0.15174160       0.45605140       0.31194110
    56  C          0.84825840       0.54394860       0.68805890
    57  H          0.25540000       0.33230000       0.19820000
    58  H          0.74460000       0.66770000       0.80180000
    59  O          0.75087880       0.86489110       0.53935900
    60  O          0.24912120       0.13510890       0.46064100
    61  H          0.73970000       0.93320000       0.61820000
    62  H          0.26030000       0.06680000       0.38180000
    63  O         -0.00266120       0.80375110       0.59990800
    64  O          0.00266120       0.19624890       0.40009200
    65  O          0.13688120       0.38054110       0.22481800
    66  O          0.86311880       0.61945890       0.77518200
    67  O          0.26436120       0.45389100       0.38262800
    68  O          0.73563880       0.54610900       0.61737200
    69  C          0.60139180       0.23158160       0.50279120
    70  C          0.39860820       0.76841840       0.49720880
    71  H          0.52850000       0.16600000       0.52800000
    72  H          0.47150000       0.83400000       0.47200000
    73  H          0.61470000       0.30490000       0.55670000
    74  H          0.38530000       0.69510000       0.44330000
    75  H          0.70480000       0.19050000       0.49360000
    76  H          0.29520000       0.80950000       0.50640000
    77  C          0.64148180       0.37914150       0.35102120
    78  C          0.35851820       0.62085850       0.64897880
    79  H          0.74380000       0.33730000       0.33950000
    80  H          0.25620000       0.66270000       0.66050000
    81  H          0.65860000       0.45500000       0.40210000
    82  H          0.34140000       0.54500000       0.59790000
    83  H          0.59240000       0.40910000       0.28130000
    84  H          0.40760000       0.59090000       0.71870000
    85  N          0.53500140       0.28220120       0.39679900
    86  N          0.46499860       0.71779880       0.60320100
    87  H          0.43860000       0.32160000       0.40610000
    88  H          0.56140000       0.67840000       0.59390000
    89  H          0.51740000       0.21230000       0.34770000
    90  H          0.48260000       0.78770000       0.65230000
    91  C          0.07030190       0.03645150       0.80345140
    92  C          0.92969810       0.96354850       0.19654860
    93  H          0.08960000       0.07960000       0.87570000
    94  H          0.91040000       0.92040000       0.12430000
    95  H         -0.01100000       0.08550000       0.76010000
    96  H          0.01100000       0.91450000       0.23990000
    97  H          0.16910000       0.03500000       0.76670000
    98  H          0.83090000       0.96500000       0.23330000
    99  C          0.13291190       0.82098160       0.88063130
   100  C          0.86708810       0.17901840       0.11936870
   101  H          0.09220000       0.73130000       0.88740000
   102  H          0.90780000       0.26870000       0.11260000
   103  H          0.15300000       0.86280000       0.95330000
   104  H          0.84700000       0.13720000       0.04670000
   105  H          0.23220000       0.81710000       0.84440000
   106  H          0.76780000       0.18290000       0.15560000
   107  N          0.01442140       0.89893120       0.81537900
   108  N         -0.01442140       0.10106880       0.18462100
   109  H          0.92050000       0.90060000       0.84860000
   110  H          0.07950000       0.09940000       0.15140000
   111  H         -0.00500000       0.85900000       0.74740000
   112  H          0.00500000       0.14100000       0.25260000
