data_PAWPUZ
_symmetry_space_group_name_H-M    'P1'
_symmetry_Int_Tables_number       1
loop_
_symmetry_equiv_pos_site_id
_symmetry_equiv_pos_as_xyz
1 x,y,z
_cell_length_a                   12.0031
_cell_length_b                   10.3101
_cell_length_c                   18.7421
_cell_angle_alpha                90.0
_cell_angle_beta                 90.15
_cell_angle_gamma                90.0
loop_
_atom_site_label
_atom_site_type_symbol
_atom_site_fract_x
_atom_site_fract_y
_atom_site_fract_z
     1  O          0.21422000       0.44285000       0.88671000
     2  O          0.78578000       0.94285000       0.11329000
     3  O          0.44018000       0.44156000       0.92192000
     4  O          0.55982000       0.94156000       0.07808000
     5  O          0.50048000       0.25185000       0.96292000
     6  O          0.49952000       0.75185000       0.03708000
     7  O          0.39802000       0.93575000       0.91872000
     8  O          0.60198000       0.43575000       0.08128000
     9  O          0.35222000       0.10255000       0.84801000
    10  O          0.64778000       0.60255000       0.15199000
    11  C          0.00453000       0.03096000       0.83102000
    12  C         -0.00453000       0.53096000       0.16898000
    13  C          0.02383000       0.90444000       0.87382000
    14  C          0.97617000       0.40444000       0.12618000
    15  C          0.14553000       0.90054000       0.89872000
    16  C          0.85447000       0.40054000       0.10128000
    17  C          0.20433000       0.00906000       0.90422000
    18  C          0.79567000       0.50906000       0.09578000
    19  C          0.16842000       0.14416000       0.88792000
    20  C          0.83158000       0.64416000       0.11208000
    21  C          0.19272000       0.23556000       0.95122000
    22  C          0.80728000       0.73556000       0.04878000
    23  C          0.15203000       0.37446000       0.93802000
    24  C          0.84797000       0.87446000       0.06198000
    25  C          0.02733000       0.37746000       0.91682000
    26  C          0.97267000       0.87746000       0.08318000
    27  C         -0.00613000       0.28256000       0.85592000
    28  C          0.00613000       0.78256000       0.14408000
    29  C          0.03912000       0.14566000       0.87612000
    30  C          0.96088000       0.64566000       0.12388000
    31  C          0.86387000       0.27516000       0.85192000
    32  C          0.13613000       0.77516000       0.14808000
    33  C          0.79937000       0.22136000       0.91402000
    34  C          0.20063000       0.72136000       0.08598000
    35  C          0.67317000       0.23856000       0.90472000
    36  C          0.32683000       0.73856000       0.09528000
    37  C          0.63167000       0.37476000       0.90452000
    38  C          0.36833000       0.87476000       0.09548000
    39  C          0.51577000       0.36457000       0.92882000
    40  C          0.48423000       0.86457000       0.07118000
    41  C          0.60527000       0.18056000       0.96252000
    42  C          0.39473000       0.68056000       0.03748000
    43  C         -0.00913000       0.51796000       0.90492000
    44  C          0.00913000       0.01796000       0.09508000
    45  C          0.32733000       0.00886000       0.89382000
    46  C          0.67267000       0.50886000       0.10618000
    47  C          0.24883000       0.17076000       0.82622000
    48  C          0.75117000       0.67076000       0.17378000
    49  C          0.03233000       0.32626000       0.78232000
    50  C          0.96767000       0.82626000       0.21768000
    51  H          0.84950000       0.21230000       0.81510000
    52  H          0.15050000       0.71230000       0.18490000
    53  H          0.84000000       0.35420000       0.84870000
    54  H          0.16000000       0.85420000       0.15130000
    55  H          0.83420000       0.27140000       0.95290000
    56  H          0.16580000       0.77140000       0.04710000
    57  H          0.81780000       0.12900000       0.92020000
    58  H          0.18220000       0.62900000       0.07980000
    59  H          0.65440000       0.18870000       0.86260000
    60  H          0.34560000       0.68870000       0.13740000
    61  H          0.66100000       0.42810000       0.92230000
    62  H          0.33900000       0.92810000       0.07770000
    63  H          0.64040000       0.41710000       0.86220000
    64  H          0.35960000       0.91710000       0.13780000
    65  H          0.58450000       0.09550000       0.95750000
    66  H          0.41550000       0.59550000       0.04250000
    67  H          0.62960000       0.18260000       0.01270000
    68  H          0.37040000       0.68260000       0.98730000
    69  H          0.18870000       0.81000000       0.89920000
    70  H          0.81130000       0.31000000       0.10080000
    71  H          0.96930000       0.91330000       0.93000000
    72  H          0.03070000       0.41330000       0.07000000
    73  H          0.93800000       0.04080000       0.82930000
    74  H          0.06200000       0.54080000       0.17070000
    75  H          0.05180000       0.01310000       0.78660000
    76  H          0.94820000       0.51310000       0.21340000
    77  H          0.01010000       0.11140000       0.92230000
    78  H         -0.01010000       0.61140000       0.07770000
    79  H          0.23070000       0.12060000       0.77330000
    80  H          0.76930000       0.62060000       0.22670000
    81  H          0.28170000       0.25980000       0.82100000
    82  H          0.71830000       0.75980000       0.17900000
    83  H          0.01010000       0.40230000       0.77230000
    84  H         -0.01010000       0.90230000       0.22770000
    85  H          0.02560000       0.26450000       0.75070000
    86  H          0.97440000       0.76450000       0.24930000
    87  H          0.11900000       0.35100000       0.76610000
    88  H          0.88100000       0.85100000       0.23390000
    89  H          0.15800000       0.42310000       0.98160000
    90  H          0.84200000       0.92310000       0.01840000
    91  H         -0.01100000       0.34990000       0.95710000
    92  H          0.01100000       0.84990000       0.04290000
    93  H         -0.00910000       0.55770000       0.96270000
    94  H          0.00910000       0.05770000       0.03730000
    95  H          0.91620000       0.53190000       0.91430000
    96  H          0.08380000       0.03190000       0.08570000
    97  H          0.01720000       0.55230000       0.85910000
    98  H          0.98280000       0.05230000       0.14090000
    99  H          0.15500000       0.19710000       0.99240000
   100  H          0.84500000       0.69710000       0.00760000
   101  H          0.26310000       0.22470000       0.94840000
   102  H          0.73690000       0.72470000       0.05160000
   103  H          0.28350000       0.46880000       0.90910000
   104  H          0.71650000       0.96880000       0.09090000
   105  H          0.01810000       0.81870000       0.84830000
   106  H          0.98190000       0.31870000       0.15170000
   107  O          0.28662000       0.66485000       0.38552000
   108  O          0.71338000       0.16485000       0.61448000
   109  O          0.06092000       0.66614000       0.42082000
   110  O          0.93908000       0.16614000       0.57918000
   111  O          0.00122000       0.85434000       0.46202000
   112  O         -0.00122000       0.35434000       0.53798000
   113  O          0.10342000       0.17026000       0.41902000
   114  O          0.89658000       0.67026000       0.58098000
   115  O          0.14922000       0.00595000       0.34781000
   116  O          0.85078000       0.50595000       0.65219000
   117  C          0.49673000       0.07696000       0.33182000
   118  C          0.50327000       0.57696000       0.66818000
   119  C          0.47433000       0.20246000       0.37292000
   120  C          0.52567000       0.70246000       0.62708000
   121  C          0.35593000       0.20606000       0.39812000
   122  C          0.64407000       0.70606000       0.60188000
   123  C          0.29663000       0.10126000       0.40392000
   124  C          0.70337000       0.60126000       0.59608000
   125  C          0.33343000       0.96214000       0.38832000
   126  C          0.66657000       0.46214000       0.61168000
   127  C          0.30822000       0.87114000       0.44882000
   128  C          0.69178000       0.37114000       0.55118000
   129  C          0.35043000       0.73464000       0.43782000
   130  C          0.64957000       0.23464000       0.56218000
   131  C          0.47323000       0.73104000       0.41532000
   132  C          0.52677000       0.23104000       0.58468000
   133  C          0.50723000       0.82504000       0.35562000
   134  C          0.49277000       0.32504000       0.64438000
   135  C          0.46113000       0.96134000       0.37412000
   136  C          0.53887000       0.46134000       0.62588000
   137  C          0.63713000       0.83244000       0.34972000
   138  C          0.36287000       0.33244000       0.65028000
   139  C          0.70143000       0.88554000       0.41512000
   140  C          0.29857000       0.38554000       0.58488000
   141  C          0.82743000       0.86934000       0.40302000
   142  C          0.17257000       0.36934000       0.59698000
   143  C          0.86763000       0.72904000       0.40372000
   144  C          0.13237000       0.22904000       0.59628000
   145  C          0.98643000       0.74283000       0.42983000
   146  C          0.01357000       0.24283000       0.57017000
   147  C          0.89583000       0.92953000       0.46512000
   148  C          0.10417000       0.42953000       0.53488000
   149  C          0.50993000       0.59014000       0.40413000
   150  C          0.49007000       0.09014000       0.59587000
   151  C          0.17243000       0.10107000       0.39472000
   152  C          0.82757000       0.60107000       0.60528000
   153  C          0.25133000       0.93944000       0.32482000
   154  C          0.74867000       0.43944000       0.67518000
   155  C          0.46743000       0.78224000       0.28112000
   156  C          0.53257000       0.28224000       0.71888000
   157  H          0.92300000       0.04170000       0.45290000
   158  H          0.07700000       0.54170000       0.54710000
   159  H          0.85490000       0.90600000       0.51970000
   160  H          0.14510000       0.40600000       0.48030000
   161  H          0.86380000       0.90440000       0.35480000
   162  H          0.13620000       0.40440000       0.64520000
   163  H          0.87860000       0.69160000       0.35460000
   164  H          0.12140000       0.19160000       0.64540000
   165  H          0.82750000       0.68290000       0.43790000
   166  H          0.17250000       0.18290000       0.56210000
   167  H          0.66450000       0.88460000       0.29960000
   168  H          0.33550000       0.38460000       0.70040000
   169  H          0.65520000       0.73950000       0.33470000
   170  H          0.34480000       0.23950000       0.66530000
   171  H          0.49390000       0.54720000       0.36530000
   172  H          0.50610000       0.04720000       0.63470000
   173  H          0.59370000       0.58530000       0.38580000
   174  H          0.40630000       0.08530000       0.61420000
   175  H          0.48510000       0.53230000       0.44490000
   176  H          0.51490000       0.03230000       0.55510000
   177  H          0.51270000       0.70400000       0.26300000
   178  H          0.48730000       0.20400000       0.73700000
   179  H          0.48680000       0.86790000       0.24260000
   180  H          0.51320000       0.36790000       0.75740000
   181  H          0.39560000       0.74650000       0.28030000
   182  H          0.60440000       0.24650000       0.71970000
   183  H          0.57480000       0.08410000       0.31540000
   184  H          0.42520000       0.58410000       0.68460000
   185  H          0.47890000       0.07790000       0.28350000
   186  H          0.52110000       0.57790000       0.71650000
   187  H          0.51340000       0.76260000       0.44780000
   188  H          0.48660000       0.26260000       0.55220000
   189  H          0.32980000       0.67990000       0.47370000
   190  H          0.67020000       0.17990000       0.52630000
   191  H          0.21120000       0.64780000       0.40780000
   192  H          0.78880000       0.14780000       0.59220000
   193  H          0.32660000       0.92060000       0.48760000
   194  H          0.67340000       0.42060000       0.51240000
   195  H          0.24460000       0.86310000       0.45730000
   196  H          0.75540000       0.36310000       0.54270000
   197  H          0.48430000       0.97350000       0.41950000
   198  H          0.51570000       0.47350000       0.58050000
   199  H          0.31670000       0.30390000       0.40350000
   200  H          0.68330000       0.80390000       0.59650000
   201  H          0.48720000       0.27550000       0.34170000
   202  H          0.51280000       0.77550000       0.65830000
   203  H          0.52320000       0.20890000       0.41230000
   204  H          0.47680000       0.70890000       0.58770000
   205  H          0.23560000       0.86870000       0.32120000
   206  H          0.76440000       0.36870000       0.67880000
   207  H          0.27980000      -0.00350000       0.27550000
   208  H          0.72020000       0.49650000       0.72450000
   209  H          0.67940000       0.84210000       0.45700000
   210  H          0.32060000       0.34210000       0.54300000
   211  H          0.68450000       0.97730000       0.42080000
   212  H          0.31550000       0.47730000       0.57920000
   213  C          0.37074000       0.41547000       0.19603000
   214  C          0.62926000       0.91547000       0.80397000
   215  C          0.36415000       0.31378000       0.15213000
   216  C          0.63585000       0.81378000       0.84787000
   217  C          0.27715000       0.22757000       0.16224000
   218  C          0.72285000       0.72757000       0.83776000
   219  C          0.20165000       0.24608000       0.21444000
   220  C          0.79835000       0.74608000       0.78556000
   221  C          0.20914000       0.34948000       0.25993000
   222  C          0.79086000       0.84948000       0.74007000
   223  C          0.29585000       0.43567000       0.24933000
   224  C          0.70415000       0.93567000       0.75067000
   225  H          0.28410000       0.15260000       0.13200000
   226  H          0.71590000       0.65260000       0.86800000
   227  H          0.15390000       0.18120000       0.22660000
   228  H          0.84610000       0.68120000       0.77340000
   229  H          0.16160000       0.38050000       0.30950000
   230  H          0.83840000       0.88050000       0.69050000
   231  H          0.43040000       0.47640000       0.19100000
   232  H          0.56960000       0.97640000       0.80900000
   233  H          0.30330000       0.50980000       0.24960000
   234  H          0.69670000       0.00980000       0.75040000
   235  H          0.41520000       0.30180000       0.11430000
   236  H          0.58480000       0.80180000       0.88570000
   237  C          0.70295000       0.36168000       0.28284000
   238  C          0.29705000       0.86168000       0.71716000
   239  C          0.77666000       0.38067000       0.33794000
   240  C          0.22334000       0.88067000       0.66206000
   241  C          0.71014000       0.26118000       0.24023000
   242  C          0.28986000       0.76118000       0.75977000
   243  C          0.86135000       0.29178000       0.34703000
   244  C          0.13865000       0.79178000       0.65297000
   245  C          0.79765000       0.17137000       0.24813000
   246  C          0.20235000       0.67137000       0.75187000
   247  C          0.87064000       0.19128000       0.30223000
   248  C          0.12936000       0.69128000       0.69777000
   249  H          0.77440000       0.46990000       0.37080000
   250  H          0.22560000       0.96990000       0.62920000
   251  H          0.65610000       0.24680000       0.20390000
   252  H          0.34390000       0.74680000       0.79610000
   253  H          0.80650000       0.10020000       0.21730000
   254  H          0.19350000       0.60020000       0.78270000
   255  H          0.93060000       0.13220000       0.30900000
   256  H          0.06940000       0.63220000       0.69100000
   257  H          0.91570000       0.30450000       0.38480000
   258  H          0.08430000       0.80450000       0.61520000
   259  H          0.64450000       0.42410000       0.27610000
   260  H          0.35550000       0.92410000       0.72390000
