data_PAXKUV
_symmetry_space_group_name_H-M    'P1'
_symmetry_Int_Tables_number       1
loop_
_symmetry_equiv_pos_site_id
_symmetry_equiv_pos_as_xyz
1 x,y,z
_cell_length_a                   9.89953
_cell_length_b                   10.87084
_cell_length_c                   12.40374
_cell_angle_alpha                80.668615
_cell_angle_beta                 78.782816
_cell_angle_gamma                84.534115
loop_
_atom_site_label
_atom_site_type_symbol
_atom_site_fract_x
_atom_site_fract_y
_atom_site_fract_z
     1  P          0.25511600       0.19870500       0.25248400
     2  P          0.74488400       0.80129500       0.74751600
     3  O          0.75419190       0.84567820       0.25993160
     4  O          0.24580810       0.15432180       0.74006840
     5  O          0.26185180       0.46124190       0.79305870
     6  O          0.73814820       0.53875810       0.20694130
     7  O          0.31317190       0.63986170       0.46734160
     8  O          0.68682810       0.36013830       0.53265840
     9  N          0.11047180       0.14489170       0.29573140
    10  N          0.88952820       0.85510830       0.70426860
    11  C          0.93388000       0.10952000       0.46081180
    12  C          0.06612000       0.89048000       0.53918820
    13  H          0.88720000       0.18370000       0.43560000
    14  H          0.11280000       0.81630000       0.56440000
    15  C          0.06002000       0.07342000       0.39874160
    16  C          0.93998000       0.92658000       0.60125840
    17  C          0.12432000       0.96168000       0.44074180
    18  C          0.87568000       0.03832000       0.55925820
    19  H          0.20870000       0.93380000       0.40190000
    20  H          0.79130000       0.06620000       0.59810000
    21  C          0.40992000       0.09682000       0.25552170
    22  C          0.59008000       0.90318000       0.74447830
    23  C          0.48592000       0.08762000       0.33925180
    24  C          0.51408000       0.91238000       0.66074820
    25  H          0.45830000       0.13830000       0.39430000
    26  H          0.54170000       0.86170000       0.60570000
    27  C          0.60162000       0.00582000       0.34450190
    28  C          0.39838000      -0.00582000       0.65549810
    29  H          0.65090000       0.00250000       0.40160000
    30  H          0.34910000      -0.00250000       0.59840000
    31  C          0.64272000       0.92928000       0.26379190
    32  C          0.35728000       0.07072000       0.73620810
    33  C          0.56713000       0.93478000       0.17982000
    34  C          0.43287000       0.06522000       0.82018000
    35  H          0.59360000       0.88250000       0.12600000
    36  H          0.40640000       0.11750000       0.87400000
    37  C          0.45322000       0.01712000       0.17560190
    38  C          0.54678000       0.98288000       0.82439810
    39  H          0.40380000       0.01990000       0.11850000
    40  H          0.59620000       0.98010000       0.88150000
    41  C          0.25892000       0.26452000       0.10928170
    42  C          0.74108000       0.73548000       0.89071830
    43  C          0.37972000       0.30872000       0.04167170
    44  C          0.62028000       0.69128000       0.95832830
    45  H          0.46260000       0.29540000       0.06780000
    46  H          0.53740000       0.70460000       0.93220000
    47  C          0.37662000       0.37202000       0.93613820
    48  C          0.62338000       0.62798000       0.06386180
    49  H          0.45750000       0.40080000       0.89150000
    50  H          0.54250000       0.59920000       0.10850000
    51  C          0.25462000       0.39282000       0.89660830
    52  C          0.74538000       0.60718000       0.10339170
    53  C          0.13542000       0.34593000       0.96045810
    54  C          0.86458000       0.65407000       0.03954190
    55  H          0.05360000       0.35640000       0.93280000
    56  H          0.94640000       0.64360000       0.06720000
    57  C          0.13902000       0.28282000       0.06637180
    58  C          0.86098000       0.71718000       0.93362820
    59  H          0.05830000       0.25190000       0.10970000
    60  H          0.94170000       0.74810000       0.89030000
    61  C          0.28402000       0.32812000       0.31935160
    62  C          0.71598000       0.67188000       0.68064840
    63  C          0.40802000       0.38622000       0.29920180
    64  C          0.59198000       0.61378000       0.70079820
    65  H          0.48350000       0.35420000       0.25220000
    66  H          0.51650000       0.64580000       0.74780000
    67  C          0.42272000       0.48982000       0.34672180
    68  C          0.57728000       0.51018000       0.65327820
    69  H          0.50680000       0.52640000       0.33200000
    70  H          0.49320000       0.47360000       0.66800000
    71  C          0.31142000       0.53812000       0.41590190
    72  C          0.68858000       0.46188000       0.58409810
    73  C          0.18742000       0.48212000       0.43752000
    74  C          0.81258000       0.51788000       0.56248000
    75  H          0.11230000       0.51450000       0.48460000
    76  H          0.88770000       0.48550000       0.51540000
    77  C          0.17412000       0.37892000       0.39008190
    78  C          0.82588000       0.62108000       0.60991810
    79  H          0.08990000       0.34250000       0.40570000
    80  H          0.91010000       0.65750000       0.59430000
    81  C          0.83463000       0.83717000       0.34453000
    82  C          0.16537000       0.16283000       0.65547000
    83  H          0.86990000       0.91690000       0.34280000
    84  H          0.13010000       0.08310000       0.65720000
    85  H          0.91010000       0.77580000       0.33210000
    86  H          0.08990000       0.22420000       0.66790000
    87  H          0.77800000       0.81330000       0.41570000
    88  H          0.22200000       0.18670000       0.58430000
    89  C          0.13623000       0.49883000       0.75348000
    90  C          0.86377000       0.50117000       0.24652000
    91  H          0.09230000       0.42620000       0.74670000
    92  H          0.90770000       0.57380000       0.25330000
    93  H          0.15560000       0.54980000       0.68220000
    94  H          0.84440000       0.45020000       0.31780000
    95  H          0.07610000       0.54570000       0.80500000
    96  H          0.92390000       0.45430000       0.19500000
    97  C          0.42893000       0.71383000       0.43243000
    98  C          0.57107000       0.28617000       0.56757000
    99  H          0.51000000       0.66560000       0.45050000
   100  H          0.49000000       0.33440000       0.54950000
   101  H          0.41370000       0.78620000       0.46960000
   102  H          0.58630000       0.21380000       0.53040000
   103  H          0.44120000       0.73970000       0.35350000
   104  H          0.55880000       0.26030000       0.64650000
   105  C          0.19075000       0.75567000       0.16784000
   106  C          0.80925000       0.24433000       0.83216000
   107  H          0.18730000       0.73410000       0.24400000
   108  H          0.81270000       0.26590000       0.75600000
   109  C          0.22914000       0.66715000       0.10067000
   110  C          0.77086000       0.33285000       0.89933000
   111  H          0.24960000       0.58480000       0.13030000
   112  H          0.75040000       0.41520000       0.86970000
   113  C          0.23724000       0.70005000      -0.01016000
   114  C          0.76276000       0.29995000       0.01016000
   115  H          0.26520000       0.64020000       0.94290000
   116  H          0.73480000       0.35980000       0.05710000
   117  C          0.20534000       0.81835000       0.94717000
   118  C          0.79466000       0.18165000       0.05283000
   119  H          0.21090000       0.84010000       0.87090000
   120  H          0.78910000       0.15990000       0.12910000
   121  C          0.16464000       0.90664000       0.01585000
   122  C          0.83536000       0.09336000       0.98415000
   123  H          0.14200000       0.98860000       0.98640000
   124  H          0.85800000       0.01140000       0.01360000
   125  C          0.15734000       0.87435000       0.12615000
   126  C          0.84266000       0.12565000       0.87385000
   127  H          0.12940000       0.93390000       0.17330000
   128  H          0.87060000       0.06610000       0.82670000
