data_PAXTIS
_symmetry_space_group_name_H-M    'P1'
_symmetry_Int_Tables_number       1
loop_
_symmetry_equiv_pos_site_id
_symmetry_equiv_pos_as_xyz
1 x,y,z
_cell_length_a                   3.95528
_cell_length_b                   8.361216
_cell_length_c                   11.6702
_cell_angle_alpha                101.6133
_cell_angle_beta                 98.9104
_cell_angle_gamma                98.0384
loop_
_atom_site_label
_atom_site_type_symbol
_atom_site_fract_x
_atom_site_fract_y
_atom_site_fract_z
     1  C          0.93292000       0.15814000       0.07053000
     2  C          0.88782000       0.01474000       0.11453000
     3  H          0.82230000       0.01900000       0.18810000
     4  C          0.94102000       0.86634000       0.04873000
     5  H          0.90650000       0.77160000       0.07870000
     6  C          0.04438000       0.85374000       0.93903000
     7  C          0.09078000      -0.00086000       0.89773000
     8  H          0.16160000      -0.00460000       0.82510000
     9  C          0.03478000       0.14934000       0.96143000
    10  H          0.06550000       0.24370000       0.93080000
    11  C          0.87251000       0.32084000       0.13863000
    12  O          0.79654000       0.31503000       0.24352000
    13  H          0.77790000       0.40800000       0.27820000
    14  O          0.88993000       0.44683000       0.10032000
    15  B          0.11761000       0.68935000       0.86354000
    16  O          0.20646000       0.69373000       0.75672000
    17  H          0.22810000       0.60060000       0.72340000
    18  O          0.09826000       0.54323000       0.89842000
    19  H          0.03190000       0.55390000       0.96230000
    20  N          0.69867000       0.60656000       0.36353000
    21  C          0.54989000       0.70006000       0.29763000
    22  H          0.49620000       0.66180000       0.21530000
    23  C          0.47268000       0.85206000       0.34753000
    24  H          0.36680000       0.91280000       0.29840000
    25  C          0.54967000       0.91466000       0.46883000
    26  C          0.70499000       0.81486000       0.53763000
    27  H          0.76070000       0.84960000       0.62010000
    28  C          0.77339000       0.66466000       0.48073000
    29  H          0.87780000       0.60040000       0.52730000
    30  N          0.31777000       0.38744000       0.63073000
    31  C          0.43151000       0.28405000       0.69594000
    32  H          0.45960000       0.31700000       0.77830000
    33  C          0.50979000       0.13135000       0.64843000
    34  H          0.58720000       0.06450000       0.69800000
    35  C          0.47077000       0.07894000       0.52503000
    36  C          0.35658000       0.18424000       0.45803000
    37  H          0.32900000       0.15470000       0.37550000
    38  C          0.28179000       0.33444000       0.51273000
    39  H          0.20160000       0.40260000       0.46460000
