data_PAXXUI
_symmetry_space_group_name_H-M    'P1'
_symmetry_Int_Tables_number       1
loop_
_symmetry_equiv_pos_site_id
_symmetry_equiv_pos_as_xyz
1 x,y,z
_cell_length_a                   25.540001
_cell_length_b                   5.50702
_cell_length_c                   14.85703
_cell_angle_alpha                90.0
_cell_angle_beta                 95.03801
_cell_angle_gamma                90.0
loop_
_atom_site_label
_atom_site_type_symbol
_atom_site_fract_x
_atom_site_fract_y
_atom_site_fract_z
     1  O          0.15377400       0.60065180       0.88838400
     2  O          0.65377400       0.10065180       0.88838400
     3  O          0.84622600       0.60065180       0.61161600
     4  O          0.34622600       0.10065180       0.61161600
     5  O          0.84622600       0.39934820       0.11161600
     6  O          0.34622600       0.89934820       0.11161600
     7  O          0.15377400       0.39934820       0.38838400
     8  O          0.65377400       0.89934820       0.38838400
     9  O          0.15093400       0.23855170       0.94648400
    10  O          0.65093400       0.73855170       0.94648400
    11  O          0.84906600       0.23855170       0.55351600
    12  O          0.34906600       0.73855170       0.55351600
    13  O          0.84906600       0.76144830       0.05351600
    14  O          0.34906600       0.26144830       0.05351600
    15  O          0.15093400       0.76144830       0.44648400
    16  O          0.65093400       0.26144830       0.44648400
    17  O          0.06693400       0.28022000       0.23533700
    18  O          0.56693400       0.78022000       0.23533700
    19  O          0.93306600       0.28022000       0.26466300
    20  O          0.43306600       0.78022000       0.26466300
    21  O          0.93306600       0.71978000       0.76466300
    22  O          0.43306600       0.21978000       0.76466300
    23  O          0.06693400       0.71978000       0.73533700
    24  O          0.56693400       0.21978000       0.73533700
    25  O          0.06172400       0.63821190       0.29533700
    26  O          0.56172400       0.13821190       0.29533700
    27  O          0.93827600       0.63821190       0.20466300
    28  O          0.43827600       0.13821190       0.20466300
    29  O          0.93827600       0.36178810       0.70466300
    30  O          0.43827600       0.86178810       0.70466300
    31  O          0.06172400       0.36178810       0.79533700
    32  O          0.56172400       0.86178810       0.79533700
    33  O          0.21214400       0.15001190       0.25814700
    34  O          0.71214400       0.65001190       0.25814700
    35  O          0.78785600       0.15001190       0.24185300
    36  O          0.28785600       0.65001190       0.24185300
    37  O          0.78785600       0.84998810       0.74185300
    38  O          0.28785600       0.34998810       0.74185300
    39  O          0.21214400       0.84998810       0.75814700
    40  O          0.71214400       0.34998810       0.75814700
    41  O          0.24320400       0.17337180       0.12787700
    42  O          0.74320400       0.67337180       0.12787700
    43  O          0.75679600       0.17337180       0.37212300
    44  O          0.25679600       0.67337180       0.37212300
    45  O          0.75679600       0.82662820       0.87212300
    46  O          0.25679600       0.32662820       0.87212300
    47  O          0.24320400       0.82662820       0.62787700
    48  O          0.74320400       0.32662820       0.62787700
    49  N          0.15371400       0.46092000       0.95224300
    50  N          0.65371400       0.96092000       0.95224300
    51  N          0.84628600       0.46092000       0.54775700
    52  N          0.34628600       0.96092000       0.54775700
    53  N          0.84628600       0.53908000       0.04775700
    54  N          0.34628600       0.03908000       0.04775700
    55  N          0.15371400       0.53908000       0.45224300
    56  N          0.65371400       0.03908000       0.45224300
    57  N          0.07868400       0.49542000       0.24190700
    58  N          0.57868400      -0.00458000       0.24190700
    59  N          0.92131600       0.49542000       0.25809300
    60  N          0.42131600      -0.00458000       0.25809300
    61  N          0.92131600       0.50458000       0.75809300
    62  N          0.42131600       0.00458000       0.75809300
    63  N          0.07868400       0.50458000       0.74190700
    64  N          0.57868400       0.00458000       0.74190700
    65  N          0.21537400       0.07856190       0.18108700
    66  N          0.71537400       0.57856190       0.18108700
    67  N          0.78462600       0.07856190       0.31891300
    68  N          0.28462600       0.57856190       0.31891300
    69  N          0.78462600       0.92143810       0.81891300
    70  N          0.28462600       0.42143810       0.81891300
    71  N          0.21537400       0.92143810       0.68108700
    72  N          0.71537400       0.42143810       0.68108700
    73  C          0.23037500       0.82632000       0.00525800
    74  C          0.73037500       0.32632000       0.00525800
    75  C          0.76962500       0.82632000       0.49474200
    76  C          0.26962500       0.32632000       0.49474200
    77  C          0.76962500       0.17368000      -0.00525800
    78  C          0.26962500       0.67368000      -0.00525800
    79  C          0.23037500       0.17368000       0.50525800
    80  C          0.73037500       0.67368000       0.50525800
    81  C          0.18896500       0.76182000       0.06561800
    82  C          0.68896500       0.26182000       0.06561800
    83  C          0.81103500       0.76182000       0.43438200
    84  C          0.31103500       0.26182000       0.43438200
    85  C          0.81103500       0.23818000       0.93438200
    86  C          0.31103500       0.73818000       0.93438200
    87  C          0.18896500       0.23818000       0.56561800
    88  C          0.68896500       0.73818000       0.56561800
    89  C          0.15481500       0.56832000       0.04335800
    90  C          0.65481500       0.06832000       0.04335800
    91  C          0.84518500       0.56832000       0.45664200
    92  C          0.34518500       0.06832000       0.45664200
    93  C          0.84518500       0.43168000       0.95664200
    94  C          0.34518500       0.93168000       0.95664200
    95  C          0.15481500       0.43168000       0.54335800
    96  C          0.65481500       0.93168000       0.54335800
    97  C          0.11977500       0.47222000       0.09952800
    98  C          0.61977500       0.97222000       0.09952800
    99  C          0.88022500       0.47222000       0.40047200
   100  C          0.38022500       0.97222000       0.40047200
   101  C          0.88022500       0.52778000       0.90047200
   102  C          0.38022500       0.02778000       0.90047200
   103  C          0.11977500       0.52778000       0.59952800
   104  C          0.61977500       0.02778000       0.59952800
   105  H          0.09900000       0.33340000       0.08290000
   106  H          0.59900000       0.83340000       0.08290000
   107  H          0.90100000       0.33340000       0.41710000
   108  H          0.40100000       0.83340000       0.41710000
   109  H          0.90100000       0.66660000       0.91710000
   110  H          0.40100000       0.16660000       0.91710000
   111  H          0.09900000       0.66660000       0.58290000
   112  H          0.59900000       0.16660000       0.58290000
   113  C          0.11651500       0.58862000       0.18115800
   114  C          0.61651500       0.08862000       0.18115800
   115  C          0.88348500       0.58862000       0.31884200
   116  C          0.38348500       0.08862000       0.31884200
   117  C          0.88348500       0.41138000       0.81884200
   118  C          0.38348500       0.91138000       0.81884200
   119  C          0.11651500       0.41138000       0.68115800
   120  C          0.61651500       0.91138000       0.68115800
   121  C          0.14656500       0.78862000       0.20735800
   122  C          0.64656500       0.28862000       0.20735800
   123  C          0.85343500       0.78862000       0.29264200
   124  C          0.35343500       0.28862000       0.29264200
   125  C          0.85343500       0.21138000       0.79264200
   126  C          0.35343500       0.71138000       0.79264200
   127  C          0.14656500       0.21138000       0.70735800
   128  C          0.64656500       0.71138000       0.70735800
   129  H          0.14270000       0.86830000       0.26310000
   130  H          0.64270000       0.36830000       0.26310000
   131  H          0.85730000       0.86830000       0.23690000
   132  H          0.35730000       0.36830000       0.23690000
   133  H          0.85730000       0.13170000       0.73690000
   134  H          0.35730000       0.63170000       0.73690000
   135  H          0.14270000       0.13170000       0.76310000
   136  H          0.64270000       0.63170000       0.76310000
   137  C          0.18261500       0.86942000       0.14946800
   138  C          0.68261500       0.36942000       0.14946800
   139  C          0.81738500       0.86942000       0.35053200
   140  C          0.31738500       0.36942000       0.35053200
   141  C          0.81738500       0.13058000       0.85053200
   142  C          0.31738500       0.63058000       0.85053200
   143  C          0.18261500       0.13058000       0.64946800
   144  C          0.68261500       0.63058000       0.64946800
   145  H          0.22666000      -0.00098500       0.96861000
   146  H          0.72666000       0.49901500       0.96861000
   147  H          0.77334000      -0.00098500       0.53139000
   148  H          0.27334000       0.49901500       0.53139000
   149  H          0.77334000       0.00098500       0.03139000
   150  H          0.27334000       0.50098500       0.03139000
   151  H          0.22666000       0.00098500       0.46861000
   152  H          0.72666000       0.50098500       0.46861000
   153  O          0.05252400      -0.02254190       0.03905600
   154  O          0.55252400       0.47745810       0.03905600
   155  O          0.94747600      -0.02254190       0.46094400
   156  O          0.44747600       0.47745810       0.46094400
   157  O          0.94747600       0.02254190       0.96094400
   158  O          0.44747600       0.52254190       0.96094400
   159  O          0.05252400       0.02254190       0.53905600
   160  O          0.55252400       0.52254190       0.53905600
   161  C          0.03900600       0.93537000       0.94464100
   162  C          0.53900600       0.43537000       0.94464100
   163  C          0.96099400       0.93537000       0.55535900
   164  C          0.46099400       0.43537000       0.55535900
   165  C          0.96099400       0.06463000       0.05535900
   166  C          0.46099400       0.56463000       0.05535900
   167  C          0.03900600       0.06463000       0.44464100
   168  C          0.53900600       0.56463000       0.44464100
   169  H          0.03150000       0.76080000       0.93430000
   170  H          0.53150000       0.26080000       0.93430000
   171  H          0.96850000       0.76080000       0.56570000
   172  H          0.46850000       0.26080000       0.56570000
   173  H          0.96850000       0.23920000       0.06570000
   174  H          0.46850000       0.73920000       0.06570000
   175  H          0.03150000       0.23920000       0.43430000
   176  H          0.53150000       0.73920000       0.43430000
   177  H          0.06900000      -0.01960000       0.91010000
   178  H          0.56900000       0.48040000       0.91010000
   179  H          0.93100000      -0.01960000       0.58990000
   180  H          0.43100000       0.48040000       0.58990000
   181  H          0.93100000       0.01960000       0.08990000
   182  H          0.43100000       0.51960000       0.08990000
   183  H          0.06900000       0.01960000       0.41010000
   184  H          0.56900000       0.51960000       0.41010000
   185  C          0.00848500       0.91687000       0.08816100
   186  C          0.50848500       0.41687000       0.08816100
   187  C          0.99151500       0.91687000       0.41183900
   188  C          0.49151500       0.41687000       0.41183900
   189  C          0.99151500       0.08313000       0.91183900
   190  C          0.49151500       0.58313000       0.91183900
   191  C          0.00848500       0.08313000       0.58816100
   192  C          0.50848500       0.58313000       0.58816100
   193  H          0.01740000       0.94810000       0.15330000
   194  H          0.51740000       0.44810000       0.15330000
   195  H          0.98260000       0.94810000       0.34670000
   196  H          0.48260000       0.44810000       0.34670000
   197  H          0.98260000       0.05190000       0.84670000
   198  H          0.48260000       0.55190000       0.84670000
   199  H          0.01740000       0.05190000       0.65330000
   200  H          0.51740000       0.55190000       0.65330000
   201  H          0.00040000       0.74200000       0.08040000
   202  H          0.50040000       0.24200000       0.08040000
   203  H         -0.00040000       0.74200000       0.41960000
   204  H          0.49960000       0.24200000       0.41960000
   205  H         -0.00040000       0.25800000       0.91960000
   206  H          0.49960000       0.75800000       0.91960000
   207  H          0.00040000       0.25800000       0.58040000
   208  H          0.50040000       0.75800000       0.58040000
