data_PAZSIV
_symmetry_space_group_name_H-M    'P1'
_symmetry_Int_Tables_number       1
loop_
_symmetry_equiv_pos_site_id
_symmetry_equiv_pos_as_xyz
1 x,y,z
_cell_length_a                   9.24627
_cell_length_b                   11.79889
_cell_length_c                   16.753713
_cell_angle_alpha                106.49601
_cell_angle_beta                 103.76101
_cell_angle_gamma                98.33501
loop_
_atom_site_label
_atom_site_type_symbol
_atom_site_fract_x
_atom_site_fract_y
_atom_site_fract_z
     1  C          0.28824000       0.85543000       0.93168000
     2  C          0.71176000       0.14457000       0.06832000
     3  C          0.13984000       0.86253000       0.93098000
     4  C          0.86016000       0.13747000       0.06902000
     5  H          0.06580000       0.85210000       0.87770000
     6  H          0.93420000       0.14790000       0.12230000
     7  C          0.09824000       0.88443000       0.00682000
     8  C          0.90176000       0.11557000      -0.00682000
     9  H         -0.00470000       0.88710000       0.00500000
    10  H          0.00470000       0.11290000      -0.00500000
    11  C          0.20504000       0.90263000       0.08552000
    12  C          0.79496000       0.09737000       0.91448000
    13  C          0.35444000       0.89783000       0.08692000
    14  C          0.64556000       0.10217000       0.91308000
    15  H          0.42910000       0.91050000       0.14040000
    16  H          0.57090000       0.08950000       0.85960000
    17  C          0.39524000       0.87433000       0.00992000
    18  C          0.60476000       0.12567000       0.99008000
    19  H          0.49780000       0.87130000       0.01130000
    20  H          0.50220000       0.12870000       0.98870000
    21  C          0.15464000       0.92833000       0.16682000
    22  C          0.84536000       0.07167000       0.83318000
    23  H          0.16190000       0.01660000       0.19100000
    24  H          0.83810000       0.98340000       0.80900000
    25  H          0.04620000       0.88600000       0.15160000
    26  H          0.95380000       0.11400000       0.84840000
    27  C          0.36624000       0.96843000       0.29782000
    28  C          0.63376000       0.03157000       0.70218000
    29  H          0.38130000       0.05220000       0.30400000
    30  H          0.61870000       0.94780000       0.69600000
    31  C          0.46464000       0.93143000       0.35432000
    32  C          0.53536000       0.06857000       0.64568000
    33  H          0.54730000      -0.01060000       0.39940000
    34  H          0.45270000       0.01060000       0.60060000
    35  C          0.44464000       0.80893000       0.34622000
    36  C          0.55536000       0.19107000       0.65378000
    37  C          0.31724000       0.72933000       0.28112000
    38  C          0.68276000       0.27067000       0.71888000
    39  H          0.29650000       0.64570000       0.27550000
    40  H          0.70350000       0.35430000       0.72450000
    41  C          0.22204000       0.76973000       0.22562000
    42  C          0.77796000       0.23027000       0.77438000
    43  H          0.13670000       0.71400000       0.18100000
    44  H          0.86330000       0.28600000       0.81900000
    45  C          0.55554000       0.76463000       0.40212000
    46  C          0.44446000       0.23537000       0.59788000
    47  C          0.65074000       0.83923000       0.48372000
    48  C          0.34926000       0.16077000       0.51628000
    49  H          0.64580000       0.92180000       0.50550000
    50  H          0.35420000       0.07820000       0.49450000
    51  C          0.75174000       0.79254000       0.53252000
    52  C          0.24826000       0.20746000       0.46748000
    53  H          0.81550000       0.84500000       0.58800000
    54  H          0.18450000       0.15500000       0.41200000
    55  C          0.67464000       0.60744000       0.42822000
    56  C          0.32536000       0.39256000       0.57178000
    57  H          0.68230000       0.52530000       0.40810000
    58  H          0.31770000       0.47470000       0.59190000
    59  C          0.57024000       0.64503000       0.37422000
    60  C          0.42976000       0.35497000       0.62578000
    61  H          0.50900000       0.59030000       0.31880000
    62  H          0.49100000       0.40970000       0.68120000
    63  C          0.33324000       0.82773000       0.84908000
    64  C          0.66676000       0.17227000       0.15092000
    65  H          0.33040000       0.89720000       0.82720000
    66  H          0.66960000       0.10280000       0.17280000
    67  H          0.43930000       0.81630000       0.86130000
    68  H          0.56070000       0.18370000       0.13870000
    69  C          0.22184000       0.61013000       0.79718000
    70  C          0.77816000       0.38987000       0.20282000
    71  H          0.28520000       0.60800000       0.85020000
    72  H          0.71480000       0.39200000       0.14980000
    73  C          0.12444000       0.50563000       0.73778000
    74  C          0.87556000       0.49437000       0.26222000
    75  H          0.12150000       0.43110000       0.74930000
    76  H          0.87850000       0.56890000       0.25070000
    77  C          0.02944000       0.50853000       0.66048000
    78  C          0.97056000       0.49147000       0.33952000
    79  C          0.03994000       0.62013000       0.64618000
    80  C          0.96006000       0.37987000       0.35382000
    81  H          0.97720000       0.62570000       0.59420000
    82  H          0.02280000       0.37430000       0.40580000
    83  C          0.14054000       0.72063000       0.70698000
    84  C          0.85946000       0.27937000       0.29302000
    85  H          0.14810000       0.79590000       0.69650000
    86  H          0.85190000       0.20410000       0.30350000
    87  C          0.92066000       0.39773000       0.59608000
    88  C          0.07934000       0.60227000       0.40392000
    89  C          0.95475000       0.28433000       0.58318000
    90  C          0.04525000       0.71567000       0.41682000
    91  H          0.04930000       0.27560000       0.61580000
    92  H          0.95070000       0.72440000       0.38420000
    93  C          0.84845000       0.18423000       0.52177000
    94  C          0.15155000       0.81577000       0.47823000
    95  H          0.87300000       0.10700000       0.51310000
    96  H          0.12700000       0.89300000       0.48690000
    97  C          0.68215000       0.29943000       0.48698000
    98  C          0.31785000       0.70057000       0.51302000
    99  H          0.58700000       0.30540000       0.45330000
   100  H          0.41300000       0.69460000       0.54670000
   101  C          0.78106000       0.40473000       0.54688000
   102  C          0.21894000       0.59527000       0.45312000
   103  H          0.75370000       0.48070000       0.55410000
   104  H          0.24630000       0.51930000       0.44590000
   105  N          0.22843000       0.71593000       0.78095810
   106  N          0.77157000       0.28407000       0.21904190
   107  N          0.71356000       0.18973000       0.47408000
   108  N          0.28644000       0.81027000       0.52592000
   109  N          0.24823000       0.88873000       0.23350190
   110  N          0.75177000       0.11127000       0.76649810
   111  N          0.76554000       0.67683000       0.50622000
   112  N          0.23446000       0.32317000       0.49378000
   113  C         -0.02115000       0.43584000       0.05553000
   114  C          0.02115000       0.56416000       0.94447000
   115  H          0.87870000       0.37930000       0.02150000
   116  H          0.12130000       0.62070000       0.97850000
   117  H          0.01580000       0.41810000       0.11020000
   118  H         -0.01580000       0.58190000       0.88980000
   119  C          0.90985000       0.58224000      -0.00433000
   120  C          0.09015000       0.41776000       0.00433000
   121  H          0.89700000       0.66680000       0.00860000
   122  H          0.10300000       0.33320000      -0.00860000
   123  H          0.80910000       0.52720000       0.96090000
   124  H          0.19090000       0.47280000       0.03910000
   125  O          0.96143000       0.55842000       0.07544180
   126  O          0.03857000       0.44158000       0.92455820
   127  C          0.53635000       0.62533000       0.02983000
   128  C          0.46365000       0.37467000       0.97017000
   129  H          0.52700000       0.70300000       0.06850000
   130  H          0.47300000       0.29700000       0.93150000
   131  H          0.60900000       0.64410000      -0.00200000
   132  H          0.39100000       0.35590000       0.00200000
   133  C          0.40335000       0.44803000       0.91673000
   134  C          0.59665000       0.55197000       0.08327000
   135  H          0.47190000       0.46110000       0.88130000
   136  H          0.52810000       0.53890000       0.11870000
   137  H          0.30120000       0.40260000       0.87630000
   138  H          0.69880000       0.59740000       0.12370000
   139  O          0.39143000       0.56252000       0.96936170
   140  O          0.60857000       0.43748000       0.03063830
   141  F          0.41033000       0.20362000       0.24380190
   142  F          0.58967000       0.79638000       0.75619810
   143  F          0.24863000       0.24002000       0.13600160
   144  F          0.75137000       0.75998000       0.86399840
   145  F          0.23093000       0.41182000       0.23237180
   146  F          0.76907000       0.58818000       0.76762820
   147  F          0.39113000       0.37432000       0.33865150
   148  F          0.60887000       0.62568000       0.66134850
   149  F          0.46103000       0.38147190       0.21956150
   150  F          0.53897000       0.61852810       0.78043850
   151  F          0.17893000       0.23162000       0.25452160
   152  F          0.82107000       0.76838000       0.74547840
   153  P          0.31966110       0.30722800       0.23736600
   154  P          0.68033890       0.69277200       0.76263400
   155  F          0.22213000       0.10692000       0.83893140
   156  F          0.77787000       0.89308000       0.16106860
   157  F          0.09103000       0.20002000       0.75571150
   158  F          0.90897000       0.79998000       0.24428850
   159  F          0.28983000      -0.00016190       0.72418150
   160  F          0.71017000       0.00016190       0.27581850
   161  F          0.15823000       0.09222000       0.64041140
   162  F          0.84177000       0.90778000       0.35958860
   163  F          0.34003000       0.20378190       0.76539150
   164  F          0.65997000       0.79621810       0.23460850
   165  F          0.04123000      -0.00568190       0.71414150
   166  F          0.95877000       0.00568190       0.28585850
   167  P          0.18982110       0.09983800       0.73920600
   168  P          0.81017890       0.90016200       0.26079400
