data_PEBZEE
_symmetry_space_group_name_H-M    'P1'
_symmetry_Int_Tables_number       1
loop_
_symmetry_equiv_pos_site_id
_symmetry_equiv_pos_as_xyz
1 x,y,z
_cell_length_a                   12.99886
_cell_length_b                   5.53702
_cell_length_c                   23.45111
_cell_angle_alpha                90.0
_cell_angle_beta                 90.0
_cell_angle_gamma                90.0
loop_
_atom_site_label
_atom_site_type_symbol
_atom_site_fract_x
_atom_site_fract_y
_atom_site_fract_z
     1  N          0.41609180       0.05454000       0.85428100
     2  N          0.58390820       0.94546000       0.35428100
     3  N          0.08390820       0.05454000       0.35428100
     4  N          0.91609180       0.94546000       0.85428100
     5  H          0.37020000      -0.01210000       0.87550000
     6  H          0.62980000       0.01210000       0.37550000
     7  H          0.12980000      -0.01210000       0.37550000
     8  H          0.87020000       0.01210000       0.87550000
     9  H          0.48010000       0.02260000       0.85960000
    10  H          0.51990000      -0.02260000       0.35960000
    11  H          0.01990000       0.02260000       0.35960000
    12  H          0.98010000      -0.02260000       0.85960000
    13  N          0.51666180       0.64344000       0.71491900
    14  N          0.48333820       0.35656000       0.21491900
    15  N          0.98333820       0.64344000       0.21491900
    16  N          0.01666180       0.35656000       0.71491900
    17  O          0.29762140       0.25863000       0.80393800
    18  O          0.70237860       0.74137000       0.30393800
    19  O          0.20237860       0.25863000       0.30393800
    20  O          0.79762140       0.74137000       0.80393800
    21  C          0.38812000       0.20665000       0.81334100
    22  C          0.61188000       0.79335000       0.31334100
    23  C          0.11188000       0.20665000       0.31334100
    24  C          0.88812000       0.79335000       0.81334100
    25  C          0.47197190       0.31975000       0.77884100
    26  C          0.52802810       0.68025000       0.27884100
    27  C          0.02802810       0.31975000       0.27884100
    28  C          0.97197190       0.68025000       0.77884100
    29  C          0.44962000       0.52455000       0.74736110
    30  C          0.55038000       0.47545000       0.24736110
    31  C          0.05038000       0.52455000       0.24736110
    32  C          0.94962000       0.47545000       0.74736110
    33  H          0.38270000       0.58350000       0.74900000
    34  H          0.61730000       0.41650000       0.24900000
    35  H          0.11730000       0.58350000       0.24900000
    36  H          0.88270000       0.41650000       0.74900000
    37  C          0.61172000       0.55495000       0.71293110
    38  C          0.38828000       0.44505000       0.21293110
    39  C          0.88828000       0.55495000       0.21293110
    40  C          0.11172000       0.44505000       0.71293110
    41  H          0.66010000       0.63410000       0.69050000
    42  H          0.33990000       0.36590000       0.19050000
    43  H          0.83990000       0.63410000       0.19050000
    44  H          0.16010000       0.36590000       0.69050000
    45  C          0.64232000       0.35225000       0.74243110
    46  C          0.35768000       0.64775000       0.24243110
    47  C          0.85768000       0.35225000       0.24243110
    48  C          0.14232000       0.64775000       0.74243110
    49  H          0.70970000       0.29670000       0.73990000
    50  H          0.29030000       0.70330000       0.23990000
    51  H          0.79030000       0.29670000       0.23990000
    52  H          0.20970000       0.70330000       0.73990000
    53  C          0.57126190       0.23265000       0.77585110
    54  C          0.42873810       0.76735000       0.27585110
    55  C          0.92873810       0.23265000       0.27585110
    56  C          0.07126190       0.76735000       0.77585110
    57  H          0.59010000       0.09520000       0.79610000
    58  H          0.40990000       0.90480000       0.29610000
    59  H          0.90990000       0.09520000       0.29610000
    60  H          0.09010000       0.90480000       0.79610000
    61  O          0.01783130       0.06343000       0.15416700
    62  O          0.98216870       0.93657000       0.65416700
    63  O          0.48216870       0.06343000       0.65416700
    64  O          0.51783130       0.93657000       0.15416700
    65  H          0.01580000       0.93500000       0.17160000
    66  H          0.98420000       0.06500000       0.67160000
    67  H          0.48420000       0.93500000       0.67160000
    68  H          0.51580000       0.06500000       0.17160000
    69  O          0.76971140       0.08213000       0.94767200
    70  O          0.23028860       0.91787000       0.44767200
    71  O          0.73028860       0.08213000       0.44767200
    72  O          0.26971140       0.91787000       0.94767200
    73  O          0.62214130       0.77993000       0.86377200
    74  O          0.37785870       0.22007000       0.36377200
    75  O          0.87785870       0.77993000       0.36377200
    76  O          0.12214130       0.22007000       0.86377200
    77  H          0.67660000       0.77430000       0.84620000
    78  H          0.32340000       0.22570000       0.34620000
    79  H          0.82340000       0.77430000       0.34620000
    80  H          0.17660000       0.22570000       0.84620000
    81  C          0.11073190       0.08724000       0.12861100
    82  C          0.88926810       0.91276000       0.62861100
    83  C          0.38926810       0.08724000       0.62861100
    84  C          0.61073190       0.91276000       0.12861100
    85  C          0.12742000       0.29474000       0.09611100
    86  C          0.87258000       0.70526000       0.59611100
    87  C          0.37258000       0.29474000       0.59611100
    88  C          0.62742000       0.70526000       0.09611100
    89  H          0.07610000       0.41120000       0.09330000
    90  H          0.92390000       0.58880000       0.59330000
    91  H          0.42390000       0.41120000       0.59330000
    92  H          0.57610000       0.58880000       0.09330000
    93  C          0.21962000       0.32705000       0.06824100
    94  C          0.78038000       0.67295000       0.56824100
    95  C          0.28038000       0.32705000       0.56824100
    96  C          0.71962000       0.67295000       0.06824100
    97  H          0.22910000       0.46510000       0.04630000
    98  H          0.77090000       0.53490000       0.54630000
    99  H          0.27090000       0.46510000       0.54630000
   100  H          0.72910000       0.53490000       0.04630000
   101  C          0.29925190       0.15835000       0.07196100
   102  C          0.70074810       0.84165000       0.57196100
   103  C          0.20074810       0.15835000       0.57196100
   104  C          0.79925190       0.84165000       0.07196100
   105  C          0.39742000       0.18405000       0.04209100
   106  C          0.60258000       0.81595000       0.54209100
   107  C          0.10258000       0.18405000       0.54209100
   108  C          0.89742000       0.81595000       0.04209100
   109  H          0.44590000       0.06350000       0.04840000
   110  H          0.55410000       0.93650000       0.54840000
   111  H          0.05410000       0.06350000       0.54840000
   112  H          0.94590000       0.93650000       0.04840000
   113  C          0.42502000       0.36145000       0.00678110
   114  C          0.57498000       0.63855000       0.50678110
   115  C          0.07498000       0.36145000       0.50678110
   116  C          0.92502000       0.63855000       0.00678110
   117  H          0.37840000       0.48770000       0.00260000
   118  H          0.62160000       0.51230000       0.50260000
   119  H          0.12160000       0.48770000       0.50260000
   120  H          0.87840000       0.51230000       0.00260000
   121  C          0.52048190       0.37974000       0.97374900
   122  C          0.47951810       0.62026000       0.47374900
   123  C          0.97951810       0.37974000       0.47374900
   124  C          0.02048190       0.62026000       0.97374900
   125  C          0.60040190       0.21065000       0.97832900
   126  C          0.39959810       0.78935000       0.47832900
   127  C          0.89959810       0.21065000       0.47832900
   128  C          0.10040190       0.78935000       0.97832900
   129  H          0.59510000       0.08160000       0.00350000
   130  H          0.40490000       0.91840000       0.50350000
   131  H          0.90490000       0.08160000       0.50350000
   132  H          0.09510000       0.91840000       0.00350000
   133  C          0.68716190       0.23804000       0.94486900
   134  C          0.31283810       0.76196000       0.44486900
   135  C          0.81283810       0.23804000       0.44486900
   136  C          0.18716190       0.76196000       0.94486900
   137  C          0.69733190       0.42565000       0.90617900
   138  C          0.30266810       0.57435000       0.40617900
   139  C          0.80266810       0.42565000       0.40617900
   140  C          0.19733190       0.57435000       0.90617900
   141  H          0.75610000       0.44020000       0.88380000
   142  H          0.24390000       0.55980000       0.38380000
   143  H          0.74390000       0.44020000       0.38380000
   144  H          0.25610000       0.55980000       0.88380000
   145  C          0.18783190       0.91635000       0.13243100
   146  C          0.81216810       0.08365000       0.63243100
   147  C          0.31216810       0.91635000       0.63243100
   148  C          0.68783190       0.08365000       0.13243100
   149  H          0.17730000       0.77680000       0.15370000
   150  H          0.82270000       0.22320000       0.65370000
   151  H          0.32270000       0.77680000       0.65370000
   152  H          0.67730000       0.22320000       0.15370000
   153  C          0.28058190       0.95155000       0.10483100
   154  C          0.71941810       0.04845000       0.60483100
   155  C          0.21941810       0.95155000       0.60483100
   156  C          0.78058190       0.04845000       0.10483100
   157  H          0.33180000       0.83520000       0.10820000
   158  H          0.66820000       0.16480000       0.60820000
   159  H          0.16820000       0.83520000       0.60820000
   160  H          0.83180000       0.16480000       0.10820000
   161  C          0.61759190       0.59134000       0.90168900
   162  C          0.38240810       0.40866000       0.40168900
   163  C          0.88240810       0.59134000       0.40168900
   164  C          0.11759190       0.40866000       0.90168900
   165  C          0.53069190       0.57004000       0.93533900
   166  C          0.46930810       0.42996000       0.43533900
   167  C          0.96930810       0.57004000       0.43533900
   168  C          0.03069190       0.42996000       0.93533900
   169  H          0.47850000       0.68410000       0.93230000
   170  H          0.52150000       0.31590000       0.43230000
   171  H          0.02150000       0.68410000       0.43230000
   172  H          0.97850000       0.31590000       0.93230000
   173  H          0.76020000       0.96240000       0.97518600
   174  H          0.23980000       0.03760000       0.47518600
   175  H          0.73980000       0.96240000       0.47518600
   176  H          0.26020000       0.03760000       0.97518600
