data_PECYII
_symmetry_space_group_name_H-M    'P1'
_symmetry_Int_Tables_number       1
loop_
_symmetry_equiv_pos_site_id
_symmetry_equiv_pos_as_xyz
1 x,y,z
_cell_length_a                   5.7641311
_cell_length_b                   7.9269517
_cell_length_c                   21.29145
_cell_angle_alpha                87.557818
_cell_angle_beta                 82.251718
_cell_angle_gamma                84.723617
loop_
_atom_site_label
_atom_site_type_symbol
_atom_site_fract_x
_atom_site_fract_y
_atom_site_fract_z
     1  S          0.54916800       0.16310600       0.59067200
     2  S          0.45083200       0.83689400       0.40932800
     3  O          0.68114000       0.26502000       0.54377700
     4  O          0.31886000       0.73498000       0.45622300
     5  O          0.63483000      -0.01352000       0.58910900
     6  O          0.36517000       0.01352000       0.41089100
     7  O          0.29963000       0.18242000       0.58836700
     8  O          0.70037000       0.81758000       0.41163300
     9  C          0.59693000       0.23492000       0.66511800
    10  C          0.40307000       0.76508000       0.33488200
    11  C          0.79583000       0.31792000       0.66945900
    12  C          0.20417000       0.68208000       0.33054100
    13  H          0.89950000       0.34170000       0.63280000
    14  H          0.10050000       0.65830000       0.36720000
    15  C          0.83983000       0.36522000       0.72796900
    16  C          0.16017000       0.63478000       0.27203100
    17  H          0.97390000       0.42190000       0.73100000
    18  H          0.02610000       0.57810000       0.26900000
    19  C          0.68813000       0.33022000       0.78274900
    20  C          0.31187000       0.66978000       0.21725100
    21  C          0.48763000       0.24763000       0.77751900
    22  C          0.51237000       0.75237000       0.22248100
    23  H          0.38300000       0.22440000       0.81400000
    24  H          0.61700000       0.77560000       0.18600000
    25  C          0.44263000       0.20012000       0.71896900
    26  C          0.55737000       0.79988000       0.28103100
    27  H          0.30790000       0.14430000       0.71560000
    28  H          0.69210000       0.85570000       0.28440000
    29  C          0.74684000       0.37383000       0.84306100
    30  C          0.25316000       0.62617000       0.15693900
    31  C          0.81314000       0.40953000       0.89114100
    32  C          0.18686000       0.59047000       0.10885900
    33  C          0.90523000       0.45462000       0.94665900
    34  C          0.09477000       0.54538000       0.05334100
    35  C          0.79083000       0.42352000       0.00728900
    36  C          0.20917000       0.57648000       0.99271100
    37  H          0.64920000       0.37130000       0.01230000
    38  H          0.35080000       0.62870000       0.98770000
    39  C          0.88324000       0.46872000       0.06004900
    40  C          0.11676000       0.53128000       0.93995100
    41  H          0.80360000       0.44770000       0.10070000
    42  H          0.19640000       0.55230000       0.89930000
    43  O          0.56926000       0.05253000       0.05495110
    44  O          0.43074000       0.94747000       0.94504890
    45  C          0.68056000       0.91086000       0.02372000
    46  C          0.31944000       0.08914000       0.97628000
    47  H          0.60550000       0.80950000       0.04070000
    48  H          0.39450000       0.19050000       0.95930000
    49  H          0.84560000       0.89640000       0.03090000
    50  H          0.15440000       0.10360000       0.96910000
    51  C          0.33298000       0.07034000       0.04312000
    52  C          0.66702000       0.92966000       0.95688000
    53  H          0.25090000       0.16990000       0.06460000
    54  H          0.74910000       0.83010000       0.93540000
    55  H          0.25480000       0.97040000       0.06020000
    56  H          0.74520000       0.02960000       0.93980000
    57  O          0.78535000       0.62293000       0.53675130
    58  O          0.21465000       0.37707000       0.46324870
    59  H          0.75380000       0.52870000       0.53620000
    60  H          0.24620000       0.47130000       0.46380000
    61  H          0.74580000       0.66960000       0.50120000
    62  H          0.25420000       0.33040000       0.49880000
    63  N          0.87963000       0.15022000       0.42490800
    64  N          0.12037000       0.84978000       0.57509200
    65  H          0.83950000       0.18100000       0.46540000
    66  H          0.16050000       0.81900000       0.53460000
    67  H          0.03640000       0.12660000       0.41720000
    68  H          0.96360000       0.87340000       0.58280000
    69  H          0.80770000       0.05770000       0.41830000
    70  H          0.19230000       0.94230000       0.58170000
    71  C          0.82353000       0.23932000       0.31426900
    72  C          0.17647000       0.76068000       0.68573100
    73  C          0.02254000       0.15043000       0.28330100
    74  C          0.97746000       0.84957000       0.71669900
    75  H          0.15240000       0.11980000       0.30500000
    76  H          0.84760000       0.88020000       0.69500000
    77  C          0.03044000       0.10693000       0.22087110
    78  C          0.96956000       0.89307000       0.77912890
    79  H          0.16570000       0.04690000       0.20030000
    80  H          0.83430000       0.95310000       0.79970000
    81  C          0.84084000       0.15113000       0.18851100
    82  C          0.15916000       0.84887000       0.81148900
    83  H          0.84580000       0.12000000       0.14620000
    84  H          0.15420000       0.88000000       0.85380000
    85  C          0.64464000       0.24093000       0.21848110
    86  C          0.35536000       0.75907000       0.78151890
    87  H          0.51600000       0.27290000       0.19640000
    88  H          0.48400000       0.72710000       0.80360000
    89  C          0.63614000       0.28423000       0.28103110
    90  C          0.36386000       0.71577000       0.71896890
    91  H          0.50090000       0.34510000       0.30120000
    92  H          0.49910000       0.65490000       0.69880000
    93  C          0.80675000       0.28963000       0.38206110
    94  C          0.19325000       0.71037000       0.61793890
    95  H          0.90540000       0.38300000       0.38420000
    96  H          0.09460000       0.61700000       0.61580000
    97  H          0.64390000       0.33140000       0.39680000
    98  H          0.35610000       0.66860000       0.60320000
