data_PEFFAI
_symmetry_space_group_name_H-M    'P1'
_symmetry_Int_Tables_number       1
loop_
_symmetry_equiv_pos_site_id
_symmetry_equiv_pos_as_xyz
1 x,y,z
_cell_length_a                   10.38711
_cell_length_b                   10.48991
_cell_length_c                   13.596713
_cell_angle_alpha                67.8522
_cell_angle_beta                 69.17701
_cell_angle_gamma                79.2512
loop_
_atom_site_label
_atom_site_type_symbol
_atom_site_fract_x
_atom_site_fract_y
_atom_site_fract_z
     1  B          0.65662150       0.51519160       0.15459130
     2  B          0.34337850       0.48480840       0.84540870
     3  O          0.75074900       0.43695100       0.08382700
     4  O          0.24925100       0.56304900       0.91617300
     5  B          0.79958140       0.71109170       0.02228130
     6  B          0.20041860       0.28890830       0.97771870
     7  O          0.91841100       0.41923110       0.92311100
     8  O          0.08158900       0.58076890       0.07688900
     9  H          0.96681600       0.46171700       0.85788600
    10  H          0.03318400       0.53828300       0.14211400
    11  O          0.86879900       0.63864100       0.94963300
    12  O          0.13120100       0.36135900       0.05036700
    13  O          0.83486800       0.84178900      -0.00588700
    14  O          0.16513200       0.15821100       0.00588700
    15  B          0.75669140       0.92718160       0.06381120
    16  B          0.24330860       0.07281840       0.93618880
    17  O          0.61028800       0.94418900       0.06528700
    18  O          0.38971200       0.05581100       0.93471300
    19  O          0.80889900       0.06160100       0.02072800
    20  O          0.19110100       0.93839900       0.97927200
    21  H          0.85641500       0.08611700       0.95368700
    22  H          0.14358500       0.91388300       0.04631300
    23  O          0.38073900       0.87722110       0.14494800
    24  O          0.61926100       0.12277890       0.85505200
    25  H          0.37651500       0.93571800       0.07751400
    26  H          0.62348500       0.06428200       0.92248600
    27  O          0.52484800       0.80359100       0.25733700
    28  O          0.47515200       0.19640900       0.74266300
    29  O          0.69871100       0.65325100       0.11694800
    30  O          0.30128900       0.34674900       0.88305200
    31  B          0.84702150       0.50007170       0.98382870
    32  B          0.15297850       0.49992830       0.01617130
    33  O          0.54904100       0.36175130       0.46559800
    34  O          0.45095900       0.63824870       0.53440200
    35  H          0.62251800       0.35921900       0.47261400
    36  H          0.37748200       0.64078100       0.52738600
    37  O          0.41528900       0.43177110       0.34709800
    38  O          0.58471100       0.56822890       0.65290200
    39  O          0.76174800       0.86140100       0.17963700
    40  O          0.23825200       0.13859900       0.82036300
    41  O          0.67930900       0.72038120       0.36459800
    42  O          0.32069100       0.27961880       0.63540200
    43  H          0.60481700       0.68801800       0.41781400
    44  H          0.39518300       0.31198200       0.58218600
    45  O          0.65967800       0.44344100       0.27005700
    46  O          0.34032200       0.55655900       0.72994300
    47  B          0.54418150       0.41443170       0.35963130
    48  B          0.45581850       0.58556830       0.64036870
    49  O          0.28266100       0.49768130       0.22190900
    50  O          0.71733900       0.50231870       0.77809100
    51  H          0.21631800       0.47521900       0.28101500
    52  H          0.78368200       0.52478100       0.71898500
    53  O          0.51731900       0.51931100       0.14862700
    54  O          0.48268100       0.48068900       0.85137300
    55  B          0.40426150       0.48336170       0.24063130
    56  B          0.59573850       0.51663830       0.75936870
    57  B          0.50804140       0.87397160       0.15432130
    58  B          0.49195860       0.12602840       0.84567870
    59  B          0.65547140       0.79321170       0.26610130
    60  B          0.34452860       0.20678830       0.73389870
    61  N          0.89773130       0.16018150       0.15899100
    62  N          0.10226870       0.83981850       0.84100900
    63  H          0.85041600       0.10111800       0.14701300
    64  H          0.14958400       0.89888200       0.85298700
    65  H          0.98791700       0.16731700       0.10231400
    66  H          0.01208300       0.83268300       0.89768600
    67  H          0.84671600       0.24871900       0.14211400
    68  H          0.15328400       0.75128100       0.85788600
    69  C          0.90972150       0.11549170       0.27351120
    70  C          0.09027850       0.88450830       0.72648880
    71  H          0.93680000       0.19220000       0.28370000
    72  H          0.06320000       0.80780000       0.71630000
    73  H          0.98130000       0.04180000       0.28110000
    74  H          0.01870000       0.95820000       0.71890000
    75  C          0.77562150       0.06574170       0.36320120
    76  C          0.22437850       0.93425830       0.63679880
    77  H          0.74480000      -0.00550000       0.34900000
    78  H          0.25520000       0.00550000       0.65100000
    79  H          0.70610000       0.14180000       0.35910000
    80  H          0.29390000       0.85820000       0.64090000
    81  C          0.78841160       0.00837180       0.48093130
    82  C          0.21158840      -0.00837180       0.51906870
    83  H          0.85950000       0.93380000       0.48470000
    84  H          0.14050000       0.06620000       0.51530000
    85  H          0.81660000       0.08030000       0.49620000
    86  H          0.18340000       0.91970000       0.50380000
    87  C          0.65381170       0.95541180       0.56965120
    88  C          0.34618830       0.04458820       0.43034880
    89  H          0.62290000       0.88800000       0.55120000
    90  H          0.37710000       0.11200000       0.44880000
    91  H          0.58450000       0.03160000       0.56820000
    92  H          0.41550000       0.96840000       0.43180000
    93  C          0.66427160       0.88974170       0.68716120
    94  C          0.33572840       0.11025830       0.31283880
    95  H          0.69520000       0.95680000       0.70600000
    96  H          0.30480000       0.04320000       0.29400000
    97  H          0.73290000       0.81300000       0.68910000
    98  H          0.26710000       0.18700000       0.31090000
    99  C          0.52730150       0.83815160       0.77450120
   100  C          0.47269850       0.16184840       0.22549880
   101  H          0.46050000       0.91600000       0.77630000
   102  H          0.53950000       0.08400000       0.22370000
   103  H          0.49300000       0.77630000       0.75270000
   104  H          0.50700000       0.22370000       0.24730000
   105  C          0.53976140       0.76359160       0.89015120
   106  C          0.46023860       0.23640840       0.10984880
   107  H          0.60570000       0.68500000       0.88890000
   108  H          0.39430000       0.31500000       0.11110000
   109  H          0.57430000       0.82500000       0.91220000
   110  H          0.42570000       0.17500000       0.08780000
   111  N          0.40431130       0.71527140       0.97391110
   112  N          0.59568870       0.28472860       0.02608890
   113  H          0.33991600       0.79051800       0.97991400
   114  H          0.66008400       0.20948200       0.02008600
   115  H          0.41311600       0.66821800       0.04241400
   116  H          0.58688400       0.33178200       0.95758600
   117  H          0.37021600       0.65581800       0.95121400
   118  H          0.62978400       0.34418200       0.04878600
   119  B          0.97183160       0.23361180       0.69837140
   120  B          0.02816840       0.76638820       0.30162860
   121  O          0.98499100       0.16868120       0.80189800
   122  O          0.01500900       0.83131880       0.19810200
   123  H          0.06321700       0.17341800       0.80641400
   124  H          0.93678300       0.82658200       0.19358600
   125  O          0.84991100       0.23594130       0.68092900
   126  O          0.15008900       0.76405870       0.31907100
   127  H          0.78671800       0.20520000       0.73651500
   128  H          0.21328200       0.79480000       0.26348500
   129  O          0.07564100       0.29434120       0.60552900
   130  O          0.92435900       0.70565880       0.39447100
   131  H          0.15351800       0.29171800       0.61411500
   132  H          0.84648200       0.70828200       0.38588500
   133  B          0.92163160       0.40518190       0.39115140
   134  B          0.07836840       0.59481810       0.60884860
   135  O          0.80662100       0.36189130       0.47963900
   136  O          0.19337900       0.63810870       0.52036100
   137  H          0.81931700       0.32720000       0.54581500
   138  H          0.18068300       0.67280000       0.45418500
   139  O          0.90987100       0.45816130       0.28660800
   140  O          0.09012900       0.54183870       0.71339200
   141  H          0.82751800       0.46111900       0.28401400
   142  H          0.17248200       0.53888100       0.71598600
   143  O          0.04983100       0.39683140       0.39815900
   144  O          0.95016900       0.60316860       0.60184100
   145  H          0.05531800       0.36320000       0.46511500
   146  H          0.94468200       0.63680000       0.53488500
