data_PEFNIZ01
_symmetry_space_group_name_H-M    'P1'
_symmetry_Int_Tables_number       1
loop_
_symmetry_equiv_pos_site_id
_symmetry_equiv_pos_as_xyz
1 x,y,z
_cell_length_a                   14.1984
_cell_length_b                   5.822717
_cell_length_c                   24.3545
_cell_angle_alpha                90.0
_cell_angle_beta                 90.2055
_cell_angle_gamma                90.0
loop_
_atom_site_label
_atom_site_type_symbol
_atom_site_fract_x
_atom_site_fract_y
_atom_site_fract_z
     1  I          0.23827200      -0.01020500       0.12800312
     2  I          0.76172800       0.48979500       0.37199688
     3  I          0.76172800       0.01020500       0.87199688
     4  I          0.23827200       0.51020500       0.62800312
     5  I          0.37399300       0.81613600       0.93677587
     6  I          0.62600700       0.31613600       0.56322413
     7  I          0.62600700       0.18386400       0.06322413
     8  I          0.37399300       0.68386400       0.43677587
     9  C          0.33303000       0.57177000       0.99417830
    10  C          0.66697000       0.07177000       0.50582170
    11  C          0.66697000       0.42823000       0.00582170
    12  C          0.33303000       0.92823000       0.49417830
    13  C          0.27673000       0.24147000       0.07164160
    14  C          0.72327000       0.74147000       0.42835840
    15  C          0.72327000       0.75853000       0.92835840
    16  C          0.27673000       0.25853000       0.57164160
    17  C          0.23433000       0.25767000       0.02055170
    18  C          0.76567000       0.75767000       0.47944830
    19  C          0.76567000       0.74233000       0.97944830
    20  C          0.23433000       0.24233000       0.52055170
    21  C          0.26113000       0.41768000       0.98286830
    22  C          0.73887000       0.91768000       0.51713170
    23  C          0.73887000       0.58232000       0.01713170
    24  C          0.26113000       0.08232000       0.48286830
    25  C          0.34833000       0.39398000       0.08237160
    26  C          0.65167000       0.89398000       0.41762840
    27  C          0.65167000       0.60602000       0.91762840
    28  C          0.34833000       0.10602000       0.58237160
    29  C          0.37583000       0.55467000       0.04472180
    30  C          0.62417000       0.05467000       0.45527820
    31  C          0.62417000       0.44533000       0.95527820
    32  C          0.37583000       0.94533000       0.54472180
    33  F          0.39382180       0.38965000       0.13095100
    34  F          0.60617820       0.88965000       0.36904900
    35  F          0.60617820       0.61035000       0.86904900
    36  F          0.39382180       0.11035000       0.63095100
    37  F          0.44682190       0.69825000       0.05740110
    38  F          0.55317810       0.19825000       0.44259890
    39  F          0.55317810       0.30175000       0.94259890
    40  F          0.44682190       0.80175000       0.55740110
    41  F          0.16419190       0.11105000       0.00734110
    42  F          0.83580810       0.61105000       0.49265890
    43  F          0.83580810       0.88895000       0.99265890
    44  F          0.16419190       0.38895000       0.50734110
    45  F          0.21732000       0.42185000       0.93379890
    46  F          0.78268000       0.92185000       0.56620110
    47  F          0.78268000       0.57815000       0.06620110
    48  F          0.21732000       0.07815000       0.43379890
    49  S          0.18599800       0.45232180       0.24340400
    50  S          0.81400200       0.95232180       0.25659600
    51  S          0.81400200       0.54767820       0.75659600
    52  S          0.18599800       0.04767820       0.74340400
    53  C          0.30013000       0.43577000       0.27504160
    54  C          0.69987000       0.93577000       0.22495840
    55  C          0.69987000       0.56423000       0.72495840
    56  C          0.30013000       0.06423000       0.77504160
    57  C          0.47283000       0.40699000       0.32529170
    58  C          0.52717000       0.90699000       0.17470830
    59  C          0.52717000       0.59301000       0.67470830
    60  C          0.47283000       0.09301000       0.82529170
    61  H          0.53130000       0.39830000       0.34250000
    62  H          0.46870000       0.89830000       0.15750000
    63  H          0.46870000       0.60170000       0.65750000
    64  H          0.53130000       0.10170000       0.84250000
    65  C          0.45173000       0.59328000       0.29224170
    66  C          0.54827000       0.09328000       0.20775830
    67  C          0.54827000       0.40672000       0.70775830
    68  C          0.45173000       0.90672000       0.79224170
    69  H          0.49620000       0.70830000       0.28710000
    70  H          0.50380000       0.20830000       0.21290000
    71  H          0.50380000       0.29170000       0.71290000
    72  H          0.49620000       0.79170000       0.78710000
    73  C          0.36543000       0.60847000       0.26711170
    74  C          0.63457000       0.10847000       0.23288830
    75  C          0.63457000       0.39153000       0.73288830
    76  C          0.36543000       0.89153000       0.76711170
    77  H          0.35090000       0.73370000       0.24500000
    78  H          0.64910000       0.23370000       0.25500000
    79  H          0.64910000       0.26630000       0.75500000
    80  H          0.35090000       0.76630000       0.74500000
    81  C          0.40843000       0.23528000       0.33291180
    82  C          0.59157000       0.73528000       0.16708820
    83  C          0.59157000       0.76472000       0.66708820
    84  C          0.40843000       0.26472000       0.83291180
    85  H          0.42300000       0.11070000       0.35530000
    86  H          0.57700000       0.61070000       0.14470000
    87  H          0.57700000       0.88930000       0.64470000
    88  H          0.42300000       0.38930000       0.85530000
    89  C          0.32133000       0.24737000       0.30716180
    90  C          0.67867000       0.74737000       0.19283820
    91  C          0.67867000       0.75263000       0.69283820
    92  C          0.32133000       0.25263000       0.80716180
    93  H          0.27760000       0.12980000       0.31150000
    94  H          0.72240000       0.62980000       0.18850000
    95  H          0.72240000       0.87020000       0.68850000
    96  H          0.27760000       0.37020000       0.81150000
    97  C          0.12903000       0.62397000       0.29523160
    98  C          0.87097000       0.12397000       0.20476840
    99  C          0.87097000       0.37603000       0.70476840
   100  C          0.12903000       0.87603000       0.79523160
   101  C          0.11843000       0.54207000       0.34782190
   102  C          0.88157000       0.04207000       0.15217810
   103  C          0.88157000       0.45793000       0.65217810
   104  C          0.11843000       0.95793000       0.84782190
   105  H          0.14440000       0.40120000       0.35760000
   106  H          0.85560000       0.90120000       0.14240000
   107  H          0.85560000       0.59880000       0.64240000
   108  H          0.14440000       0.09880000       0.85760000
   109  C          0.03023000       0.88038000       0.37223190
   110  C          0.96977000       0.38038000       0.12776810
   111  C          0.96977000       0.11962000       0.62776810
   112  C          0.03023000       0.61962000       0.87223190
   113  C          0.06933000       0.66938000       0.38600190
   114  C          0.93067000       0.16938000       0.11399810
   115  C          0.93067000       0.33062000       0.61399810
   116  C          0.06933000       0.83062000       0.88600190
   117  H          0.06220000       0.61290000       0.42150000
   118  H          0.93780000       0.11290000       0.07850000
   119  H          0.93780000       0.38710000       0.57850000
   120  H          0.06220000       0.88710000       0.92150000
   121  C          0.04333000       0.95817000       0.31937190
   122  C          0.95667000       0.45817000       0.18062810
   123  C          0.95667000       0.04183000       0.68062810
   124  C          0.04333000       0.54183000       0.81937190
   125  H          0.01870000       0.10030000       0.30950000
   126  H          0.98130000       0.60030000       0.19050000
   127  H          0.98130000       0.89970000       0.69050000
   128  H          0.01870000       0.39970000       0.80950000
   129  O          0.19452000       0.60065000       0.19412120
   130  O          0.80548000       0.10065000       0.30587880
   131  O          0.80548000       0.39935000       0.80587880
   132  O          0.19452000       0.89935000       0.69412120
   133  C          0.97607000       0.01969000       0.41332000
   134  C          0.02393000       0.51969000       0.08668000
   135  C          0.02393000      -0.01969000       0.58668000
   136  C          0.97607000       0.48031000       0.91332000
   137  H          0.00910000       0.16030000       0.42060000
   138  H         -0.00910000       0.66030000       0.07940000
   139  H         -0.00910000       0.83970000       0.57940000
   140  H          0.00910000       0.33970000       0.92060000
   141  H          0.96980000       0.93390000       0.44670000
   142  H          0.03020000       0.43390000       0.05330000
   143  H          0.03020000       0.06610000       0.55330000
   144  H          0.96980000       0.56610000       0.94670000
   145  H          0.91470000       0.05390000       0.39880000
   146  H          0.08530000       0.55390000       0.10120000
   147  H          0.08530000       0.94610000       0.60120000
   148  H          0.91470000       0.44610000       0.89880000
   149  C          0.09143000       0.83307000       0.28066170
   150  C          0.90857000       0.33307000       0.21933830
   151  C          0.90857000       0.16693000       0.71933830
   152  C          0.09143000       0.66693000       0.78066170
   153  H          0.09850000       0.88900000       0.24520000
   154  H          0.90150000       0.38900000       0.25480000
   155  H          0.90150000       0.11100000       0.75480000
   156  H          0.09850000       0.61100000       0.74520000
