data_PEFNEV
_symmetry_space_group_name_H-M    'P1'
_symmetry_Int_Tables_number       1
loop_
_symmetry_equiv_pos_site_id
_symmetry_equiv_pos_as_xyz
1 x,y,z
_cell_length_a                   10.272619
_cell_length_b                   10.303819
_cell_length_c                   11.1772
_cell_angle_alpha                113.0934
_cell_angle_beta                 108.0075
_cell_angle_gamma                100.8155
loop_
_atom_site_label
_atom_site_type_symbol
_atom_site_fract_x
_atom_site_fract_y
_atom_site_fract_z
     1  S          0.29470100       0.70411120       0.55214110
     2  S          0.70529900       0.29588880       0.44785890
     3  O          0.27023000       0.71934000       0.42043000
     4  O          0.72977000       0.28066000       0.57957000
     5  C          0.46383000       0.85334000       0.68914000
     6  C          0.53617000       0.14666000       0.31086000
     7  C          0.52254000       0.86355000       0.82264000
     8  C          0.47746000       0.13645000       0.17736000
     9  H          0.47330000       0.79740000       0.84490000
    10  H          0.52670000       0.20260000       0.15510000
    11  C          0.65685000       0.97486000       0.92264000
    12  C          0.34315000       0.02514000       0.07736000
    13  H          0.69890000      -0.01620000       0.01340000
    14  H          0.30110000       0.01620000      -0.01340000
    15  C          0.72805000       0.07226000       0.88826000
    16  C          0.27195000       0.92774000       0.11174000
    17  H          0.81810000       0.14680000       0.95600000
    18  H          0.18190000       0.85320000       0.04400000
    19  C          0.66895000       0.06046000       0.75866000
    20  C          0.33105000       0.93954000       0.24134000
    21  H          0.71780000       0.12730000       0.73670000
    22  H          0.28220000       0.87270000       0.26330000
    23  C          0.53594000       0.94995000       0.65674000
    24  C          0.46406000       0.05005000       0.34326000
    25  H          0.49560000       0.94160000       0.56600000
    26  H          0.50440000       0.05840000       0.43400000
    27  C          0.17383000       0.77684000       0.62203000
    28  C          0.82617000       0.22316000       0.37797000
    29  C          0.09234000       0.69135000       0.65964000
    30  C          0.90766000       0.30865000       0.34036000
    31  H          0.10260000       0.60060000       0.65080000
    32  H          0.89740000       0.39940000       0.34920000
    33  C         -0.00315000       0.74079000       0.70975000
    34  C          0.00315000       0.25921000       0.29025000
    35  H          0.94110000       0.68240000       0.73450000
    36  H          0.05890000       0.31760000       0.26550000
    37  C         -0.01915000       0.87131000       0.72446000
    38  C          0.01915000       0.12869000       0.27554000
    39  H          0.91700000       0.90470000       0.76180000
    40  H          0.08300000       0.09530000       0.23820000
    41  C          0.06166000       0.95796000       0.68276000
    42  C          0.93834000       0.04204000       0.31724000
    43  H          0.04940000       0.04750000       0.69020000
    44  H          0.95060000       0.95250000       0.30980000
    45  C          0.15915000       0.90925000       0.63065000
    46  C          0.84085000       0.09075000       0.36935000
    47  H          0.21310000       0.96470000       0.60240000
    48  H          0.78690000       0.03530000       0.39760000
    49  C          0.48094000       0.59174000       0.22094000
    50  C          0.51906000       0.40826000       0.77906000
    51  C          0.36424000       0.47814000       0.19754000
    52  C          0.63576000       0.52186000       0.80246000
    53  C          0.23534000       0.41464000       0.07674000
    54  C          0.76466000       0.58536000       0.92326000
    55  C          0.21483000       0.46274000       0.97607000
    56  C          0.78517000       0.53726000       0.02393000
    57  C          0.33234000       0.57604000       0.00034000
    58  C          0.66766000       0.42396000      -0.00034000
    59  C          0.46214000       0.63844000       0.11884000
    60  C          0.53786000       0.36156000       0.88116000
    61  I          0.67676300       0.68851400       0.40322300
    62  I          0.32323700       0.31148600       0.59677700
    63  F          0.57202000       0.74773000       0.13492000
    64  F          0.42798000       0.25227000       0.86508000
    65  F          0.31952000       0.62802000       0.90478000
    66  F          0.68048000       0.37198000       0.09522000
    67  I          0.01366200       0.37816300       0.80052800
    68  I         -0.01366200       0.62183700       0.19947200
    69  F          0.12602000       0.30243000       0.05783000
    70  F          0.87398000       0.69757000       0.94217000
    71  F          0.37543000       0.42743000       0.29273000
    72  F          0.62457000       0.57257000       0.70727000
