data_PEFNUL
_symmetry_space_group_name_H-M    'P1'
_symmetry_Int_Tables_number       1
loop_
_symmetry_equiv_pos_site_id
_symmetry_equiv_pos_as_xyz
1 x,y,z
_cell_length_a                   8.147217
_cell_length_b                   8.4742
_cell_length_c                   15.5514
_cell_angle_alpha                99.4704
_cell_angle_beta                 98.1378
_cell_angle_gamma                94.5074
loop_
_atom_site_label
_atom_site_type_symbol
_atom_site_fract_x
_atom_site_fract_y
_atom_site_fract_z
     1  S          0.71184150       0.12438150       0.88895800
     2  S          0.28815850       0.87561850       0.11104200
     3  O          0.79475000       0.06945000       0.81203000
     4  O          0.20525000       0.93055000       0.18797000
     5  C          0.75686000       0.33926000       0.91153000
     6  C          0.24314000       0.66074000       0.08847000
     7  C          0.72686000       0.42276000      -0.00797000
     8  C          0.27314000       0.57724000       0.00797000
     9  C          0.76657000       0.58916000       0.01144000
    10  C          0.23343000       0.41084000       0.98856000
    11  H          0.74840000       0.64730000       0.06480000
    12  H          0.25160000       0.35270000       0.93520000
    13  C          0.83258000       0.66607000       0.95115000
    14  C          0.16742000       0.33393000       0.04885000
    15  H          0.85760000       0.77720000       0.96400000
    16  H          0.14240000       0.22280000       0.03600000
    17  C          0.86248000       0.58338000       0.87224000
    18  C          0.13752000       0.41662000       0.12776000
    19  H          0.90750000       0.63790000       0.83230000
    20  H          0.09250000       0.36210000       0.16770000
    21  C          0.82477000       0.41797000       0.85244000
    22  C          0.17523000       0.58203000       0.14756000
    23  H          0.84520000       0.36050000       0.79930000
    24  H          0.15480000       0.63950000       0.20070000
    25  O          0.66095000       0.33244000       0.04532000
    26  O          0.33905000       0.66756000       0.95468000
    27  C          0.63779000       0.41038000       0.13144000
    28  C          0.36221000       0.58962000       0.86856000
    29  H          0.74350000       0.45750000       0.16470000
    30  H          0.25650000       0.54250000       0.83530000
    31  H          0.58920000       0.33270000       0.16160000
    32  H          0.41080000       0.66730000       0.83840000
    33  H          0.56480000       0.49290000       0.12560000
    34  H          0.43520000       0.50710000       0.87440000
    35  C          0.49525000       0.10905000       0.84623000
    36  C          0.50475000       0.89095000       0.15377000
    37  C          0.38507000       0.02186000       0.88323000
    38  C          0.61493000       0.97814000       0.11677000
    39  H          0.42190000       0.97770000       0.93250000
    40  H          0.57810000       0.02230000       0.06750000
    41  C          0.21747000      -0.00037000       0.84674000
    42  C          0.78253000       0.00037000       0.15326000
    43  H          0.14160000       0.94040000       0.87150000
    44  H          0.85840000       0.05960000       0.12850000
    45  C          0.16427000       0.06487000       0.77484000
    46  C          0.83573000       0.93513000       0.22516000
    47  H          0.05180000       0.04990000       0.75070000
    48  H          0.94820000       0.95010000       0.24930000
    49  C          0.27447000       0.15197000       0.73744000
    50  C          0.72553000       0.84803000       0.26256000
    51  H          0.23710000       0.19580000       0.68810000
    52  H          0.76290000       0.80420000       0.31190000
    53  C          0.44096000       0.17426000       0.77333000
    54  C          0.55904000       0.82574000       0.22667000
    55  H          0.51640000       0.23330000       0.74820000
    56  H          0.48360000       0.76670000       0.25180000
    57  C          0.92437000       0.36486000       0.52574000
    58  C          0.07563000       0.63514000       0.47426000
    59  C          0.00448000       0.49267000       0.58623000
    60  C         -0.00448000       0.50733000       0.41377000
    61  C          0.07797000       0.62486000       0.56184000
    62  C          0.92203000       0.37514000       0.43816000
    63  I          0.81385600       0.16401500       0.56438400
    64  I          0.18614400       0.83598500       0.43561600
    65  F          0.01246000       0.48925000       0.67322000
    66  F         -0.01246000       0.51075000       0.32678000
    67  F          0.15526000       0.74535000       0.62433000
    68  F          0.84474000       0.25465000       0.37567000
    69  C          0.56496000       0.62665000       0.57013000
    70  C          0.43504000       0.37335000       0.42987000
    71  C          0.47077000       0.49406000       0.58293000
    72  C          0.52923000       0.50594000       0.41707000
    73  C          0.59336000       0.62985000       0.48533000
    74  C          0.40664000       0.37015000       0.51467000
    75  I          0.65910400       0.81515400       0.67353200
    76  I          0.34089600       0.18484600       0.32646800
    77  F          0.68395000       0.75604000       0.46752000
    78  F          0.31605000       0.24396000       0.53248000
    79  F          0.43735000       0.48284000       0.66426180
    80  F          0.56265000       0.51716000       0.33573820
