data_PEFPEX
_symmetry_space_group_name_H-M    'P1'
_symmetry_Int_Tables_number       1
loop_
_symmetry_equiv_pos_site_id
_symmetry_equiv_pos_as_xyz
1 x,y,z
_cell_length_a                   5.599911
_cell_length_b                   12.9953
_cell_length_c                   13.3283
_cell_angle_alpha                100.0597
_cell_angle_beta                 95.1237
_cell_angle_gamma                95.3567
loop_
_atom_site_label
_atom_site_type_symbol
_atom_site_fract_x
_atom_site_fract_y
_atom_site_fract_z
     1  S          0.59864160       0.20945700      -0.01049700
     2  S          0.40135840       0.79054300       0.01049700
     3  O          0.37044000       0.23562000       0.03562000
     4  O          0.62956000       0.76438000       0.96438000
     5  C          0.76237000       0.33383000       0.98077000
     6  C          0.23763000       0.66617000       0.01923000
     7  H          0.79380000       0.37760000       0.04850000
     8  H          0.20620000       0.62240000       0.95150000
     9  H          0.91610000       0.32160000       0.95540000
    10  H          0.08390000       0.67840000       0.04460000
    11  C          0.61768000       0.39073000       0.90897000
    12  C          0.38232000       0.60927000       0.09103000
    13  H          0.46140000       0.39950000       0.93350000
    14  H          0.53860000       0.60050000       0.06650000
    15  H          0.70080000       0.46020000       0.91210000
    16  H          0.29920000       0.53980000       0.08790000
    17  C          0.57917000       0.33473000       0.79877000
    18  C          0.42083000       0.66527000       0.20123000
    19  C          0.37327000       0.26554000       0.76097000
    20  C          0.62673000       0.73446000       0.23903000
    21  H          0.25600000       0.25440000       0.80430000
    22  H          0.74400000       0.74560000       0.19570000
    23  C          0.33958000       0.21344000       0.66126000
    24  C          0.66042000       0.78656000       0.33874000
    25  H          0.20100000       0.16700000       0.63810000
    26  H          0.79900000       0.83300000       0.36190000
    27  C          0.50878000       0.22914000       0.59507000
    28  C          0.49122000       0.77086000       0.40493000
    29  H          0.48430000       0.19490000       0.52700000
    30  H          0.51570000       0.80510000       0.47300000
    31  C          0.71448000       0.29643000       0.63137000
    32  C          0.28552000       0.70357000       0.36863000
    33  H          0.83110000       0.30730000       0.58770000
    34  H          0.16890000       0.69270000       0.41230000
    35  C          0.74907000       0.34783000       0.73177000
    36  C          0.25093000       0.65217000       0.26823000
    37  H          0.89010000       0.39240000       0.75510000
    38  H          0.10990000       0.60760000       0.24490000
    39  C          0.80196000       0.17813000       0.08983000
    40  C          0.19804000       0.82187000       0.91017000
    41  H          0.95880000       0.17040000       0.06570000
    42  H          0.04120000       0.82960000       0.93430000
    43  H          0.82140000       0.23510000       0.14860000
    44  H          0.17860000       0.76490000       0.85140000
    45  C          0.70497000       0.07673000       0.12163000
    46  C          0.29503000       0.92327000       0.87837000
    47  H          0.54490000       0.08330000       0.14270000
    48  H          0.45510000       0.91670000       0.85730000
    49  H          0.69190000       0.01920000       0.06350000
    50  H          0.30810000       0.98080000       0.93650000
    51  C          0.86907000       0.05243000       0.20893000
    52  C          0.13093000       0.94757000       0.79107000
    53  C          0.85698000       0.10114000       0.30933000
    54  C          0.14302000       0.89886000       0.69067000
    55  H          0.74240000       0.14740000       0.32400000
    56  H          0.25760000       0.85260000       0.67600000
    57  C          0.01469000       0.08104000       0.38763000
    58  C         -0.01469000       0.91896000       0.61237000
    59  H          0.00510000       0.11400000       0.45470000
    60  H         -0.00510000       0.88600000       0.54530000
    61  C          0.18329000       0.01374000       0.36784000
    62  C          0.81671000       0.98626000       0.63216000
    63  H          0.28900000       0.00110000       0.42100000
    64  H          0.71100000      -0.00110000       0.57900000
    65  C          0.19668000       0.96436000       0.26874000
    66  C          0.80332000       0.03564000       0.73126000
    67  H          0.31200000       0.91840000       0.25470000
    68  H          0.68800000       0.08160000       0.74530000
    69  C          0.03948000       0.98326000       0.19073000
    70  C          0.96052000       0.01674000       0.80927000
    71  H          0.04800000       0.94870000       0.12400000
    72  H          0.95200000       0.05130000       0.87600000
    73  C          0.45866000       0.44003000       0.40053000
    74  C          0.54134000       0.55997000       0.59947000
    75  C          0.66156000       0.51173000       0.43093000
    76  C          0.33844000       0.48827000       0.56907000
    77  C          0.29906000       0.43033000       0.47183000
    78  C          0.70094000       0.56967000       0.52817000
    79  I          0.39908500       0.35228200       0.25090200
    80  I          0.60091500       0.64771800       0.74909800
    81  F          0.82394000       0.52472000       0.36434180
    82  F          0.17606000       0.47528000       0.63565820
    83  F          0.09644000       0.36182190       0.44679190
    84  F          0.90356000       0.63817810       0.55320810
