data_PEGCIR
_symmetry_space_group_name_H-M    'P1'
_symmetry_Int_Tables_number       1
loop_
_symmetry_equiv_pos_site_id
_symmetry_equiv_pos_as_xyz
1 x,y,z
_cell_length_a                   4.17688
_cell_length_b                   11.5132
_cell_length_c                   15.4763
_cell_angle_alpha                78.423
_cell_angle_beta                 86.373
_cell_angle_gamma                86.543
loop_
_atom_site_label
_atom_site_type_symbol
_atom_site_fract_x
_atom_site_fract_y
_atom_site_fract_z
     1  C          0.01341100       0.46794000       0.17253000
     2  C         -0.01341100       0.53206000       0.82747000
     3  N          0.80831100       0.52004000       0.22483000
     4  N          0.19168900       0.47996000       0.77517000
     5  C          0.73031200       0.63494000       0.20053000
     6  C          0.26968800       0.36506000       0.79947000
     7  H          0.58210000       0.67110000       0.23740000
     8  H          0.41790000       0.32890000       0.76260000
     9  C          0.85421100       0.70364000       0.12453000
    10  C          0.14578900       0.29636000       0.87547000
    11  C          0.06931200       0.65104000       0.07013000
    12  C          0.93068800       0.34896000       0.92987000
    13  H          0.15870000       0.69670000       0.01700000
    14  H          0.84130000       0.30330000       0.98300000
    15  C          0.15111300       0.53245000       0.09413000
    16  C          0.84888700       0.46755000       0.90587000
    17  H          0.29890000       0.49460000       0.05810000
    18  H          0.70110000       0.50540000       0.94190000
    19  I          0.70926700       0.88290200       0.09023200
    20  I          0.29073300       0.11709800       0.90976800
    21  H          0.95613000       0.31350000       0.25030000
    22  H          0.04387000       0.68650000       0.74970000
    23  N          0.06431000       0.34664000       0.20323000
    24  N          0.93569000       0.65336000       0.79677000
    25  C          0.26061200       0.26795000       0.16564000
    26  C          0.73938800       0.73205000       0.83436000
    27  O          0.44161100       0.29844000       0.10183000
    28  O          0.55838900       0.70156000       0.89817000
    29  C          0.22901600       0.14065000       0.21135000
    30  C          0.77098400       0.85935000       0.78865000
    31  H          0.29980000       0.08840000       0.17030000
    32  H          0.70020000       0.91160000       0.82970000
    33  H          0.00410000       0.12730000       0.23080000
    34  H         -0.00410000       0.87270000       0.76920000
    35  H          0.36260000       0.12310000       0.26260000
    36  H          0.63740000       0.87690000       0.73740000
    37  C          0.32111200       0.26524000       0.48143000
    38  C          0.67888800       0.73476000       0.51857000
    39  C          0.17781300       0.34094000       0.53483000
    40  C          0.82218700       0.65906000       0.46517000
    41  H          0.19900000       0.42420000       0.51830000
    42  H          0.80100000       0.57580000       0.48170000
    43  C          0.00611400       0.29365000       0.61144000
    44  C         -0.00611400       0.70635000       0.38856000
    45  H          0.90650000       0.34500000       0.64730000
    46  H          0.09350000       0.65500000       0.35270000
    47  C         -0.02308300       0.17236000       0.63684000
    48  C          0.02308300       0.82764000       0.36316000
    49  H          0.86000000       0.14040000       0.69010000
    50  H          0.14000000       0.85960000       0.30990000
    51  C          0.12011700       0.09715000       0.58374000
    52  C          0.87988300       0.90285000       0.41626000
    53  H          0.10220000       0.01370000       0.60080000
    54  H          0.89780000       0.98630000       0.39920000
    55  C          0.28691500       0.14405000       0.50653000
    56  C          0.71308500       0.85595000       0.49347000
    57  H          0.38020000       0.09270000       0.46980000
    58  H          0.61980000       0.90730000       0.53020000
    59  C          0.50611300       0.31234000       0.39863000
    60  C          0.49388700       0.68766000       0.60137000
    61  O          0.65051000       0.24863000       0.35352000
    62  O          0.34949000       0.75137000       0.64648000
    63  H          0.61915000       0.45360000       0.33630000
    64  H          0.38085000       0.54640000       0.66370000
    65  O          0.50101100       0.42933000       0.37732000
    66  O          0.49898900       0.57067000       0.62268000
