data_PEGCUD
_symmetry_space_group_name_H-M    'P1'
_symmetry_Int_Tables_number       1
loop_
_symmetry_equiv_pos_site_id
_symmetry_equiv_pos_as_xyz
1 x,y,z
_cell_length_a                   4.350001
_cell_length_b                   11.57172
_cell_length_c                   15.43813
_cell_angle_alpha                78.0412
_cell_angle_beta                 88.9202
_cell_angle_gamma                87.7552
loop_
_atom_site_label
_atom_site_type_symbol
_atom_site_fract_x
_atom_site_fract_y
_atom_site_fract_z
     1  I          0.80093400       0.10114200       0.20037200
     2  I          0.19906600       0.89885800       0.79962800
     3  O          0.41575000       0.67883190       0.04415140
     4  O          0.58425000       0.32116810       0.95584860
     5  N          0.04635000       0.63508190       0.15097140
     6  N          0.95365000       0.36491810       0.84902860
     7  H          0.93320800       0.66680800       0.18843500
     8  H          0.06679200       0.33319200       0.81156500
     9  N          0.83975000       0.46367190       0.22504130
    10  N          0.16025000       0.53632810       0.77495870
    11  C          0.02445000       0.51392000       0.15851150
    12  C         -0.02445000       0.48608000       0.84148850
    13  C          0.91516000       0.27852000       0.18153160
    14  C          0.08484000       0.72148000       0.81846840
    15  C          0.17076000       0.44782000       0.10236160
    16  C          0.82924000       0.55218000       0.89763840
    17  H          0.30733600       0.48407100       0.05695600
    18  H          0.69266400       0.51592900       0.94304400
    19  C          0.22236000       0.71122000       0.09238160
    20  C          0.77764000       0.28878000       0.90761840
    21  C          0.78566000       0.34792000       0.23623160
    22  C          0.21434000       0.65208000       0.76376840
    23  H          0.65380700       0.31272400       0.28332500
    24  H          0.34619300       0.68727600       0.71667500
    25  C          0.11316000       0.32912000       0.11406160
    26  C          0.88684000       0.67088000       0.88593840
    27  H          0.20806100       0.28263000       0.07633500
    28  H          0.79193900       0.71737000       0.92366500
    29  C          0.15358000       0.83953000       0.09312000
    30  C          0.84642000       0.16047000       0.90688000
    31  H          0.34057400       0.88412400       0.07768000
    32  H          0.65942600       0.11587600       0.92232000
    33  H          0.08195900       0.84710100       0.15231600
    34  H          0.91804100       0.15289900       0.84768400
    35  H         -0.00669700       0.87071300       0.04985600
    36  H          0.00669700       0.12928700       0.95014400
    37  Cl         0.65324860       0.84890500       0.58830400
    38  Cl         0.34675140       0.15109500       0.41169600
    39  O          0.59844000       0.73609170       0.26388120
    40  O          0.40156000       0.26390830       0.73611880
    41  O          0.52725000       0.55495160       0.34477120
    42  O          0.47275000       0.44504840       0.65522880
    43  H          0.64329300       0.53509300       0.30585400
    44  H          0.35670700       0.46490700       0.69414600
    45  C          0.89055000       0.79652000       0.51193160
    46  C          0.10945000       0.20348000       0.48806840
    47  C          0.27765000       0.71422000       0.39267150
    48  C          0.72235000       0.28578000       0.60732850
    49  C         -0.01216000       0.67872000       0.52982160
    50  C          0.01216000       0.32128000       0.47017840
    51  H          0.92311400       0.62680000       0.58242700
    52  H          0.07688600       0.37320000       0.41757300
    53  C          0.48396000       0.67052000       0.32750160
    54  C          0.51604000       0.32948000       0.67249840
    55  C          0.18086000       0.63832000       0.46978160
    56  C          0.81914000       0.36168000       0.53021840
    57  H          0.24851400       0.55754600       0.48112600
    58  H          0.75148600       0.44245400       0.51887400
    59  C         -0.01876000       0.87392000       0.43572160
    60  C          0.01876000       0.12608000       0.56427840
    61  H          0.91029200       0.95420400       0.42426600
    62  H          0.08970800       0.04579600       0.57573400
    63  C          0.17776000       0.83222000       0.37633160
    64  C          0.82224000       0.16778000       0.62366840
    65  H          0.24431800       0.88461700       0.32418800
    66  H          0.75568200       0.11538300       0.67581200
