data_PEGDUE
_symmetry_space_group_name_H-M    'P1'
_symmetry_Int_Tables_number       1
loop_
_symmetry_equiv_pos_site_id
_symmetry_equiv_pos_as_xyz
1 x,y,z
_cell_length_a                   15.36512
_cell_length_b                   4.473045
_cell_length_c                   21.79423
_cell_angle_alpha                90.0
_cell_angle_beta                 106.212814
_cell_angle_gamma                90.0
loop_
_atom_site_label
_atom_site_type_symbol
_atom_site_fract_x
_atom_site_fract_y
_atom_site_fract_z
     1  Cl         0.67442200       0.34329800       0.69834200
     2  Cl         0.82557800       0.84329800       0.80165800
     3  Cl         0.32557800       0.65670200       0.30165800
     4  Cl         0.17442200       0.15670200       0.19834200
     5  O          0.35038700       0.47243000       0.51811500
     6  O          0.14961300      -0.02757000       0.98188500
     7  O          0.64961300       0.52757000       0.48188500
     8  O          0.85038700       0.02757000       0.01811500
     9  H          0.30482300       0.36142300       0.50521800
    10  H          0.19517700       0.86142300      -0.00521800
    11  H          0.69517700       0.63857700       0.49478200
    12  H          0.80482300       0.13857700       0.00521800
    13  O          0.31310700       0.44363000       0.60990500
    14  O          0.18689300       0.94363000       0.89009500
    15  O          0.68689300       0.55637000       0.39009500
    16  O          0.81310700       0.05637000       0.10990500
    17  C          0.50027900       0.82633000       0.57298600
    18  C         -0.00027900       0.32633000       0.92701400
    19  C          0.49972100       0.17367000       0.42701400
    20  C          0.00027900       0.67367000       0.07298600
    21  H          0.49184100       0.75788900       0.53045400
    22  H          0.00815900       0.25788900       0.96954600
    23  H          0.50815900       0.24211100       0.46954600
    24  H         -0.00815900       0.74211100       0.03045400
    25  C          0.44050900       0.73573000       0.60704600
    26  C          0.05949100       0.23573000       0.89295400
    27  C          0.55949100       0.26427000       0.39295400
    28  C          0.94050900       0.76427000       0.10704600
    29  C          0.57186900       0.01523000       0.60056600
    30  C          0.92813100       0.51523000       0.89943400
    31  C          0.42813100      -0.01523000       0.39943400
    32  C          0.07186900       0.48477000       0.10056600
    33  H          0.61208800       0.07906700       0.57706800
    34  H          0.88791200       0.57906700       0.92293200
    35  H          0.38791200       0.92093300       0.42293200
    36  H          0.11208800       0.42093300       0.07706800
    37  C          0.58396900       0.10943000       0.66260600
    38  C          0.91603100       0.60943000       0.83739400
    39  C          0.41603100       0.89057000       0.33739400
    40  C          0.08396900       0.39057000       0.16260600
    41  C          0.36215900       0.53643000       0.57863600
    42  C          0.13784100       0.03643000       0.92136400
    43  C          0.63784100       0.46357000       0.42136400
    44  C          0.86215900       0.96357000       0.07863600
    45  C          0.45465100       0.83503000       0.66970700
    46  C          0.04534900       0.33503000       0.83029300
    47  C          0.54534900       0.16497000       0.33029300
    48  C          0.95465100       0.66497000       0.16970700
    49  H          0.41438900       0.77365100       0.69337300
    50  H          0.08561100       0.27365100       0.80662700
    51  H          0.58561100       0.22634900       0.30662700
    52  H          0.91438900       0.72634900       0.19337300
    53  C          0.52601100       0.02043000       0.69770700
    54  C          0.97398900       0.52043000       0.80229300
    55  C          0.47398900      -0.02043000       0.30229300
    56  C          0.02601100       0.47957000       0.19770700
    57  H          0.53542900       0.08651600       0.74048900
    58  H          0.96457100       0.58651600       0.75951100
    59  H          0.46457100       0.91348400       0.25951100
    60  H          0.03542900       0.41348400       0.24048900
    61  O          0.08695800       0.64818000       0.58341500
    62  O          0.41304200       0.14818000       0.91658500
    63  O          0.91304200       0.35182000       0.41658500
    64  O          0.58695800       0.85182000       0.08341500
    65  N          0.17452800       0.00833000       0.55597500
    66  N          0.32547200       0.50833000       0.94402500
    67  N          0.82547200      -0.00833000       0.44402500
    68  N          0.67452800       0.49167000       0.05597500
    69  H          0.21290000       0.15249700       0.57245700
    70  H          0.28710000       0.65249700       0.92754300
    71  H          0.78710000       0.84750300       0.42754300
    72  H          0.71290000       0.34750300       0.07245700
    73  N          0.20983800       0.12803000       0.46369600
    74  N          0.29016200       0.62803000       0.03630400
    75  N          0.79016200       0.87197000       0.53630400
    76  N          0.70983800       0.37197000       0.96369600
    77  C          0.15565900       0.96867000       0.49031600
    78  C          0.34434100       0.46867000       0.00968400
    79  C          0.84434100       0.03133000       0.50968400
    80  C          0.65565900       0.53133000       0.99031600
    81  C          0.14093900       0.85137000       0.59818600
    82  C          0.35906100       0.35137000       0.90181400
    83  C          0.85906100       0.14863000       0.40181400
    84  C          0.64093900       0.64863000       0.09818600
    85  C          0.08678900       0.78537000       0.45428700
    86  C          0.41321100       0.28537000       0.04571300
    87  C          0.91321100       0.21463000       0.54571300
    88  C          0.58678900       0.71463000       0.95428700
    89  H          0.04876200       0.67663100       0.47398900
    90  H          0.45123800       0.17663100       0.02601100
    91  H          0.95123800       0.32336900       0.52601100
    92  H          0.54876200       0.82336900       0.97398900
    93  C          0.19617100       0.10724000       0.40012700
    94  C          0.30382900       0.60724000       0.09987300
    95  C          0.80382900       0.89276000       0.59987300
    96  C          0.69617100       0.39276000       0.90012700
    97  H          0.23383400       0.22138000       0.38107100
    98  H          0.26616600       0.72138000       0.11892900
    99  H          0.76616600       0.77862000       0.61892900
   100  H          0.73383400       0.27862000       0.88107100
   101  C          0.07524100       0.76596000       0.38946700
   102  C          0.42475900       0.26596000       0.11053300
   103  C          0.92475900       0.23404000       0.61053300
   104  C          0.57524100       0.73404000       0.88946700
   105  H          0.02933700       0.64064400       0.36391600
   106  H          0.47066300       0.14064400       0.13608400
   107  H          0.97066300       0.35935600       0.63608400
   108  H          0.52933700       0.85935600       0.86391600
   109  C          0.13082100       0.92996000       0.36143700
   110  C          0.36917900       0.42996000       0.13856300
   111  C          0.86917900       0.07004000       0.63856300
   112  C          0.63082100       0.57004000       0.86143700
   113  H          0.12367100       0.91943600       0.31676100
   114  H          0.37632900       0.41943600       0.18323900
   115  H          0.87632900       0.08056400       0.68323900
   116  H          0.62367100       0.58056400       0.81676100
   117  C          0.18016110       0.95306000       0.66660700
   118  C          0.31983890       0.45306000       0.83339300
   119  C          0.81983890       0.04694000       0.33339300
   120  C          0.68016110       0.54694000       0.16660700
   121  H          0.24479100       0.89424700       0.68117000
   122  H          0.25520900       0.39424700       0.81883000
   123  H          0.75520900       0.10575300       0.31883000
   124  H          0.74479100       0.60575300       0.18117000
   125  H          0.17730600       0.17398300       0.66814200
   126  H          0.32269400       0.67398300       0.83185800
   127  H          0.82269400       0.82601700       0.33185800
   128  H          0.67730600       0.32601700       0.16814200
   129  C          0.13169110       0.82466000       0.71185700
   130  C          0.36830890       0.32466000       0.78814300
   131  C          0.86830890       0.17534000       0.28814300
   132  C          0.63169110       0.67534000       0.21185700
   133  H          0.06816100       0.88858600       0.69879600
   134  H          0.43183900       0.38858600       0.80120400
   135  H          0.93183900       0.11141400       0.30120400
   136  H          0.56816100       0.61141400       0.19879600
   137  H          0.16071800       0.89592700       0.75527100
   138  H          0.33928200       0.39592700       0.74472900
   139  H          0.83928200       0.10407300       0.24472900
   140  H          0.66071800       0.60407300       0.25527100
   141  H          0.13463800       0.60592100       0.71092700
   142  H          0.36536200       0.10592100       0.78907300
   143  H          0.86536200       0.39407900       0.28907300
   144  H          0.63463800       0.89407900       0.21092700
