data_PEGFEQ
_symmetry_space_group_name_H-M    'P1'
_symmetry_Int_Tables_number       1
loop_
_symmetry_equiv_pos_site_id
_symmetry_equiv_pos_as_xyz
1 x,y,z
_cell_length_a                   4.52882
_cell_length_b                   12.86824
_cell_length_c                   15.28404
_cell_angle_alpha                97.4392
_cell_angle_beta                 94.4013
_cell_angle_gamma                93.0653
loop_
_atom_site_label
_atom_site_type_symbol
_atom_site_fract_x
_atom_site_fract_y
_atom_site_fract_z
     1  I          0.57472300       0.05471200       0.37867200
     2  I          0.42527700       0.94528800       0.62132800
     3  O          0.77612000       0.56423000       0.63462000
     4  O          0.22388000       0.43577000       0.36538000
     5  N          0.06488000       0.26003000       0.59112000
     6  N          0.93512000       0.73997000       0.40888000
     7  N          0.08978000       0.43333000       0.64952000
     8  N          0.91022000       0.56667000       0.35048000
     9  H          0.25529600       0.41917800       0.67833500
    10  H          0.74470400       0.58082200       0.32166500
    11  C          0.96001000       0.35473000       0.58533000
    12  C          0.03999000       0.64527000       0.41467000
    13  C         -0.01251000       0.53133000       0.67323000
    14  C          0.01251000       0.46867000       0.32677000
    15  C          0.73651000       0.18753000       0.46643000
    16  C          0.26349000       0.81247000       0.53357000
    17  C          0.95459000       0.17863000       0.53253000
    18  C          0.04541000       0.82137000       0.46747000
    19  H          0.02969600       0.11171100       0.53658300
    20  H         -0.02969600       0.88828900       0.46341700
    21  C          0.62739000       0.28614000       0.46053000
    22  C          0.37261000       0.71386000       0.53947000
    23  H          0.47663600       0.29452000       0.41565900
    24  H          0.52336400       0.70548000       0.58434100
    25  C          0.73919000       0.36983000       0.51943000
    26  C          0.26081000       0.63017000       0.48057000
    27  H          0.66876200       0.43749000       0.51606500
    28  H          0.33123800       0.56251000       0.48393500
    29  C          0.15681200       0.59074000       0.75424000
    30  C          0.84318800       0.40926000       0.24576000
    31  H          0.37196500       0.58694900       0.74779300
    32  H          0.62803500       0.41305100       0.25220700
    33  H          0.11102300       0.55635100       0.80637900
    34  H          0.88897700       0.44364900       0.19362100
    35  C          0.08581500       0.70544000       0.77094000
    36  C          0.91418500       0.29456000       0.22906000
    37  H          0.14306500       0.74122800       0.72133700
    38  H          0.85693500       0.25877200       0.27866300
    39  H          0.19607800       0.73912100       0.82580900
    40  H          0.80392200       0.26087900       0.17419100
    41  H          0.87241300       0.70991300       0.77622400
    42  H          0.12758700       0.29008700       0.22377600
    43  O          0.48397000       0.20112000       0.70562000
    44  O          0.51603000       0.79888000       0.29438000
    45  H          0.35298400       0.22579700       0.67374600
    46  H          0.64701600       0.77420300       0.32625400
    47  O          0.55927000       0.36892000       0.76642000
    48  O          0.44073000       0.63108000       0.23358000
    49  C         -0.01949000       0.31453000       0.89583000
    50  C          0.01949000       0.68547000       0.10417000
    51  H          0.93917800       0.38640300       0.89799000
    52  H          0.06082200       0.61359700       0.10201000
    53  C          0.83599000       0.24103000       0.82933000
    54  C          0.16401000       0.75897000       0.17067000
    55  C          0.10271000       0.10374000       0.88813000
    56  C          0.89729000       0.89626000       0.11187000
    57  C          0.61301000       0.27663000       0.76443000
    58  C          0.38699000       0.72337000       0.23557000
    59  C          0.89851000       0.13564000       0.82573000
    60  C          0.10149000       0.86436000       0.17427000
    61  H          0.80097900       0.08513700       0.78036600
    62  H          0.19902100       0.91486300       0.21963400
    63  C          0.18331000       0.28464000       0.95873000
    64  C          0.81669000       0.71536000       0.04127000
    65  C          0.24091000       0.17854000       0.95373000
    66  C          0.75909000       0.82146000       0.04627000
    67  H          0.37929000       0.15709900      -0.00334400
    68  H          0.62071000       0.84290100       0.00334400
    69  C          0.17181400      -0.01054000       0.88304000
    70  C          0.82818600       0.01054000       0.11696000
    71  H          0.12757300       0.96329100       0.93829900
    72  H          0.87242700       0.03670900       0.06170100
    73  H          0.38230000       0.98282500       0.87416800
    74  H          0.61770000       0.01717500       0.12583200
    75  H          0.05019000       0.94843100       0.83331600
    76  H          0.94981000       0.05156900       0.16668400
    77  C          0.34181300       0.36405000       0.03024000
    78  C          0.65818700       0.63595000       0.96976000
    79  H          0.55330900       0.37021800       0.02078000
    80  H          0.44669100       0.62978200       0.97922000
    81  H          0.31786100       0.34119800       0.08811900
    82  H          0.68213900       0.65880200       0.91188100
    83  H          0.25745100       0.43231200       0.02823200
    84  H          0.74254900       0.56768800       0.97176800
