data_PEGXUW
_symmetry_space_group_name_H-M    'P1'
_symmetry_Int_Tables_number       1
loop_
_symmetry_equiv_pos_site_id
_symmetry_equiv_pos_as_xyz
1 x,y,z
_cell_length_a                   13.813411
_cell_length_b                   11.61139
_cell_length_c                   14.209612
_cell_angle_alpha                90.0
_cell_angle_beta                 110.7154
_cell_angle_gamma                90.0
loop_
_atom_site_label
_atom_site_type_symbol
_atom_site_fract_x
_atom_site_fract_y
_atom_site_fract_z
     1  Cl        -0.00000000       0.94817400       0.25000000
     2  Cl         0.50000000       0.44817400       0.25000000
     3  Cl        -0.00000000       0.05182600       0.75000000
     4  Cl         0.50000000       0.55182600       0.75000000
     5  F          0.08385700       0.79624700       0.13050600
     6  F          0.91614300       0.79624700       0.36949400
     7  F          0.58385700       0.29624700       0.13050600
     8  F          0.41614300       0.29624700       0.36949400
     9  F          0.91614300       0.20375300       0.86949400
    10  F          0.08385700       0.20375300       0.63050600
    11  F          0.41614300       0.70375300       0.86949400
    12  F          0.58385700       0.70375300       0.63050600
    13  N         -0.00000000       0.56272120       0.25000000
    14  N          0.50000000       0.06272120       0.25000000
    15  N         -0.00000000       0.43727880       0.75000000
    16  N          0.50000000       0.93727880       0.75000000
    17  N          0.08136110       0.55636120       0.13352100
    18  N          0.91863890       0.55636120       0.36647900
    19  N          0.58136110       0.05636120       0.13352100
    20  N          0.41863890       0.05636120       0.36647900
    21  N          0.91863890       0.44363880       0.86647900
    22  N          0.08136110       0.44363880       0.63352100
    23  N          0.41863890       0.94363880       0.86647900
    24  N          0.58136110       0.94363880       0.63352100
    25  H          0.06101300       0.48511700       0.12651200
    26  H          0.93898700       0.48511700       0.37348800
    27  H          0.56101300       0.98511700       0.12651200
    28  H          0.43898700       0.98511700       0.37348800
    29  H          0.93898700       0.51488300       0.87348800
    30  H          0.06101300       0.51488300       0.62651200
    31  H          0.43898700       0.01488300       0.87348800
    32  H          0.56101300       0.01488300       0.62651200
    33  H          0.09181300       0.59071500       0.08641300
    34  H          0.90818700       0.59071500       0.41358700
    35  H          0.59181300       0.09071500       0.08641300
    36  H          0.40818700       0.09071500       0.41358700
    37  H          0.90818700       0.40928500       0.91358700
    38  H          0.09181300       0.40928500       0.58641300
    39  H          0.40818700       0.90928500       0.91358700
    40  H          0.59181300       0.90928500       0.58641300
    41  C          0.03942100       0.61979110       0.18985900
    42  C          0.96057900       0.61979110       0.31014100
    43  C          0.53942100       0.11979110       0.18985900
    44  C          0.46057900       0.11979110       0.31014100
    45  C          0.96057900       0.38020890       0.81014100
    46  C          0.03942100       0.38020890       0.68985900
    47  C          0.46057900       0.88020890       0.81014100
    48  C          0.53942100       0.88020890       0.68985900
    49  C          0.04118100       0.73957110       0.18995900
    50  C          0.95881900       0.73957110       0.31004100
    51  C          0.54118100       0.23957110       0.18995900
    52  C          0.45881900       0.23957110       0.31004100
    53  C          0.95881900       0.26042890       0.81004100
    54  C          0.04118100       0.26042890       0.68995900
    55  C          0.45881900       0.76042890       0.81004100
    56  C          0.54118100       0.76042890       0.68995900
    57  C         -0.00000000       0.79992150       0.25000000
    58  C          0.50000000       0.29992150       0.25000000
    59  C         -0.00000000       0.20007850       0.75000000
    60  C          0.50000000       0.70007850       0.75000000
    61  O          0.17358700       0.35865800       0.03838700
    62  O          0.82641300       0.35865800       0.46161300
    63  O          0.67358700       0.85865800       0.03838700
    64  O          0.32641300       0.85865800       0.46161300
    65  O          0.82641300       0.64134200       0.96161300
    66  O          0.17358700       0.64134200       0.53838700
    67  O          0.32641300       0.14134200       0.96161300
    68  O          0.67358700       0.14134200       0.53838700
    69  O          0.17403700       0.59857800       0.96596700
    70  O          0.82596300       0.59857800       0.53403300
    71  O          0.67403700       0.09857800       0.96596700
    72  O          0.32596300       0.09857800       0.53403300
    73  O          0.82596300       0.40142200       0.03403300
    74  O          0.17403700       0.40142200       0.46596700
    75  O          0.32596300       0.90142200       0.03403300
    76  O          0.67403700       0.90142200       0.46596700
    77  O          0.97679300       0.70570800       0.87695700
    78  O          0.02320700       0.70570800       0.62304300
    79  O          0.47679300       0.20570800       0.87695700
    80  O          0.52320700       0.20570800       0.62304300
    81  O          0.02320700       0.29429200       0.12304300
    82  O          0.97679300       0.29429200       0.37695700
    83  O          0.52320700       0.79429200       0.12304300
    84  O          0.47679300       0.79429200       0.37695700
    85  C          0.26028100       0.42791130       0.04601100
    86  C          0.73971900       0.42791130       0.45398900
    87  C          0.76028100       0.92791130       0.04601100
    88  C          0.23971900       0.92791130       0.45398900
    89  C          0.73971900       0.57208870       0.95398900
    90  C          0.26028100       0.57208870       0.54601100
    91  C          0.23971900       0.07208870       0.95398900
    92  C          0.76028100       0.07208870       0.54601100
    93  H          0.32000000       0.37820000       0.05060000
    94  H          0.68000000       0.37820000       0.44940000
    95  H          0.82000000       0.87820000       0.05060000
    96  H          0.18000000       0.87820000       0.44940000
    97  H          0.68000000       0.62180000       0.94940000
    98  H          0.32000000       0.62180000       0.55060000
    99  H          0.18000000       0.12180000       0.94940000
   100  H          0.82000000       0.12180000       0.55060000
   101  H          0.27930000       0.47530000       0.10780000
   102  H          0.72070000       0.47530000       0.39220000
   103  H          0.77930000       0.97530000       0.10780000
   104  H          0.22070000       0.97530000       0.39220000
   105  H          0.72070000       0.52470000       0.89220000
   106  H          0.27930000       0.52470000       0.60780000
   107  H          0.22070000       0.02470000       0.89220000
   108  H          0.77930000       0.02470000       0.60780000
   109  C          0.23554110       0.50466120       0.95585100
   110  C          0.76445890       0.50466120       0.54414900
   111  C          0.73554110       0.00466120       0.95585100
   112  C          0.26445890       0.00466120       0.54414900
   113  C          0.76445890       0.49533880       0.04414900
   114  C          0.23554110       0.49533880       0.45585100
   115  C          0.26445890      -0.00466120       0.04414900
   116  C          0.73554110      -0.00466120       0.45585100
   117  H          0.30040000       0.53380000       0.94980000
   118  H          0.69960000       0.53380000       0.55020000
   119  H          0.80040000       0.03380000       0.94980000
   120  H          0.19960000       0.03380000       0.55020000
   121  H          0.69960000       0.46620000       0.05020000
   122  H          0.30040000       0.46620000       0.44980000
   123  H          0.19960000       0.96620000       0.05020000
   124  H          0.80040000       0.96620000       0.44980000
   125  H          0.19760000       0.46050000       0.89420000
   126  H          0.80240000       0.46050000       0.60580000
   127  H          0.69760000       0.96050000       0.89420000
   128  H          0.30240000       0.96050000       0.60580000
   129  H          0.80240000       0.53950000       0.10580000
   130  H          0.19760000       0.53950000       0.39420000
   131  H          0.30240000       0.03950000       0.10580000
   132  H          0.69760000       0.03950000       0.39420000
   133  C          0.14741110       0.67314120       0.88115100
   134  C          0.85258890       0.67314120       0.61884900
   135  C          0.64741110       0.17314120       0.88115100
   136  C          0.35258890       0.17314120       0.61884900
   137  C          0.85258890       0.32685880       0.11884900
   138  C          0.14741110       0.32685880       0.38115100
   139  C          0.35258890       0.82685880       0.11884900
   140  C          0.64741110       0.82685880       0.38115100
   141  H          0.11600000       0.62820000       0.81850000
   142  H          0.88400000       0.62820000       0.68150000
   143  H          0.61600000       0.12820000       0.81850000
   144  H          0.38400000       0.12820000       0.68150000
   145  H          0.88400000       0.37180000       0.18150000
   146  H          0.11600000       0.37180000       0.31850000
   147  H          0.38400000       0.87180000       0.18150000
   148  H          0.61600000       0.87180000       0.31850000
   149  H          0.21030000       0.71170000       0.87840000
   150  H          0.78970000       0.71170000       0.62160000
   151  H          0.71030000       0.21170000       0.87840000
   152  H          0.28970000       0.21170000       0.62160000
   153  H          0.78970000       0.28830000       0.12160000
   154  H          0.21030000       0.28830000       0.37840000
   155  H          0.28970000       0.78830000       0.12160000
   156  H          0.71030000       0.78830000       0.37840000
   157  C          0.07240110       0.76070120       0.89037100
   158  C          0.92759890       0.76070120       0.60962900
   159  C          0.57240110       0.26070120       0.89037100
   160  C          0.42759890       0.26070120       0.60962900
   161  C          0.92759890       0.23929880       0.10962900
   162  C          0.07240110       0.23929880       0.39037100
   163  C          0.42759890       0.73929880       0.10962900
   164  C          0.57240110       0.73929880       0.39037100
   165  H          0.09950000       0.79740000       0.95760000
   166  H          0.90050000       0.79740000       0.54240000
   167  H          0.59950000       0.29740000       0.95760000
   168  H          0.40050000       0.29740000       0.54240000
   169  H          0.90050000       0.20260000       0.04240000
   170  H          0.09950000       0.20260000       0.45760000
   171  H          0.40050000       0.70260000       0.04240000
   172  H          0.59950000       0.70260000       0.45760000
   173  H          0.06230000       0.82130000       0.83880000
   174  H          0.93770000       0.82130000       0.66120000
   175  H          0.56230000       0.32130000       0.83880000
   176  H          0.43770000       0.32130000       0.66120000
   177  H          0.93770000       0.17870000       0.16120000
   178  H          0.06230000       0.17870000       0.33880000
   179  H          0.43770000       0.67870000       0.16120000
   180  H          0.56230000       0.67870000       0.33880000
   181  C          0.90033880       0.78163120       0.88557110
   182  C          0.09966120       0.78163120       0.61442890
   183  C          0.40033880       0.28163120       0.88557110
   184  C          0.59966120       0.28163120       0.61442890
   185  C          0.09966120       0.21836880       0.11442890
   186  C          0.90033880       0.21836880       0.38557110
   187  C          0.59966120       0.71836880       0.11442890
   188  C          0.40033880       0.71836880       0.38557110
   189  H          0.88390000       0.84080000       0.83200000
   190  H          0.11610000       0.84080000       0.66800000
   191  H          0.38390000       0.34080000       0.83200000
   192  H          0.61610000       0.34080000       0.66800000
   193  H          0.11610000       0.15920000       0.16800000
   194  H          0.88390000       0.15920000       0.33200000
   195  H          0.61610000       0.65920000       0.16800000
   196  H          0.38390000       0.65920000       0.33200000
   197  H          0.92610000       0.82110000       0.95160000
   198  H          0.07390000       0.82110000       0.54840000
   199  H          0.42610000       0.32110000       0.95160000
   200  H          0.57390000       0.32110000       0.54840000
   201  H          0.07390000       0.17890000       0.04840000
   202  H          0.92610000       0.17890000       0.45160000
   203  H          0.57390000       0.67890000       0.04840000
   204  H          0.42610000       0.67890000       0.45160000
   205  C          0.80569890       0.71356120       0.87591100
   206  C          0.19430110       0.71356120       0.62408900
   207  C          0.30569890       0.21356120       0.87591100
   208  C          0.69430110       0.21356120       0.62408900
   209  C          0.19430110       0.28643880       0.12408900
   210  C          0.80569890       0.28643880       0.37591100
   211  C          0.69430110       0.78643880       0.12408900
   212  C          0.30569890       0.78643880       0.37591100
   213  H          0.74770000       0.76630000       0.87080000
   214  H          0.25230000       0.76630000       0.62920000
   215  H          0.24770000       0.26630000       0.87080000
   216  H          0.75230000       0.26630000       0.62920000
   217  H          0.25230000       0.23370000       0.12920000
   218  H          0.74770000       0.23370000       0.37080000
   219  H          0.75230000       0.73370000       0.12920000
   220  H          0.24770000       0.73370000       0.37080000
   221  H          0.78550000       0.66600000       0.81410000
   222  H          0.21450000       0.66600000       0.68590000
   223  H          0.28550000       0.16600000       0.81410000
   224  H          0.71450000       0.16600000       0.68590000
   225  H          0.21450000       0.33400000       0.18590000
   226  H          0.78550000       0.33400000       0.31410000
   227  H          0.71450000       0.83400000       0.18590000
   228  H          0.28550000       0.83400000       0.31410000
