data_PEJJAR
_symmetry_space_group_name_H-M    'P1'
_symmetry_Int_Tables_number       1
loop_
_symmetry_equiv_pos_site_id
_symmetry_equiv_pos_as_xyz
1 x,y,z
_cell_length_a                   7.2222
_cell_length_b                   12.0344
_cell_length_c                   12.8594
_cell_angle_alpha                102.9635
_cell_angle_beta                 102.4205
_cell_angle_gamma                92.3635
loop_
_atom_site_label
_atom_site_type_symbol
_atom_site_fract_x
_atom_site_fract_y
_atom_site_fract_z
     1  C          0.71694000       0.42872000       0.51422000
     2  C          0.28306000       0.57128000       0.48578000
     3  C          0.77064000       0.53112000       0.48102000
     4  C          0.22936000       0.46888000       0.51898000
     5  C          0.79774000       0.63662000       0.54812000
     6  C          0.20226000       0.36338000       0.45188000
     7  H          0.83440000       0.69860000       0.52260000
     8  H          0.16560000       0.30140000       0.47740000
     9  C          0.77114000       0.65582000       0.65842000
    10  C          0.22886000       0.34418000       0.34158000
    11  C          0.71414000       0.55702000       0.69252000
    12  C          0.28586000       0.44298000       0.30748000
    13  H          0.69120000       0.56610000       0.76220000
    14  H          0.30880000       0.43390000       0.23780000
    15  C          0.69264000       0.45122000       0.62652000
    16  C          0.30736000       0.54878000       0.37348000
    17  C          0.79424000       0.76472000       0.72542000
    18  C          0.20576000       0.23528000       0.27458000
    19  C          0.89504000       0.86042000       0.70172000
    20  C          0.10496000       0.13958000       0.29828000
    21  C          0.06794000       0.84963000       0.67172000
    22  C          0.93206000       0.15037000       0.32828000
    23  H          0.12350000       0.78090000       0.66810000
    24  H          0.87650000       0.21910000       0.33190000
    25  C          0.15775000       0.94113000       0.64723000
    26  C          0.84225000       0.05887000       0.35277000
    27  H          0.27320000       0.93220000       0.62680000
    28  H          0.72680000       0.06780000       0.37320000
    29  C          0.08237000       0.04443000       0.65203000
    30  C          0.91763000       0.95557000       0.34797000
    31  C          0.91337000       0.05453000       0.68413000
    32  C          0.08663000       0.94547000       0.31587000
    33  H          0.85970000       0.12390000       0.68880000
    34  H          0.14030000       0.87610000       0.31120000
    35  C          0.82015000       0.96593000       0.70973000
    36  C          0.17985000       0.03407000       0.29027000
    37  H          0.70680000       0.97650000       0.73240000
    38  H          0.29320000       0.02350000       0.26760000
    39  C          0.71224000       0.79102000       0.82322000
    40  C          0.28776000       0.20898000       0.17678000
    41  C          0.52694000       0.75422000       0.81672000
    42  C          0.47306000       0.24578000       0.18328000
    43  H          0.45360000       0.70990000       0.75070000
    44  H          0.54640000       0.29010000       0.24930000
    45  C          0.44745000       0.78203000       0.90703000
    46  C          0.55255000       0.21797000       0.09297000
    47  H          0.32070000       0.75740000       0.90040000
    48  H          0.67930000       0.24260000       0.09960000
    49  C          0.55395000       0.84583000       0.00683000
    50  C          0.44605000       0.15417000      -0.00683000
    51  C          0.74025000       0.88273000       0.01323000
    52  C          0.25975000       0.11727000       0.98677000
    53  H          0.81420000       0.92550000       0.07970000
    54  H          0.18580000       0.07450000       0.92030000
    55  C          0.81915000       0.85722000       0.92292000
    56  C          0.18085000       0.14278000       0.07708000
    57  H          0.94420000       0.88440000       0.92860000
    58  H          0.05580000       0.11560000       0.07140000
    59  C          0.46516000       0.87524000       0.10493000
    60  C          0.53484000       0.12476000       0.89507000
    61  H          0.51990000       0.83380000       0.15790000
    62  H          0.48010000       0.16620000       0.84210000
    63  H          0.33030000       0.85440000       0.08170000
    64  H          0.66970000       0.14560000       0.91830000
    65  H          0.48900000       0.95600000       0.13730000
    66  H          0.51100000       0.04400000       0.86270000
    67  C          0.18118000       0.14414000       0.62534000
    68  C          0.81882000       0.85586000       0.37466000
    69  H          0.26570000       0.18920000       0.69080000
    70  H          0.73430000       0.81080000       0.30920000
    71  H          0.08780000       0.19070000       0.59670000
    72  H          0.91220000       0.80930000       0.40330000
    73  H          0.25270000       0.11580000       0.57170000
    74  H          0.74730000       0.88420000       0.42830000
    75  Cl         0.79604100       0.51145700       0.34788600
    76  Cl         0.20395900       0.48854300       0.65211400
    77  Cl         0.63465130       0.33256600       0.67135700
    78  Cl         0.36534870       0.66743400       0.32864300
    79  O          0.69303000       0.33247160       0.45302180
    80  O          0.30697000       0.66752840       0.54697820
    81  C          0.02041900       0.59091000       0.96301200
    82  C         -0.02041900       0.40909000       0.03698800
    83  O          0.89360000       0.58461500       0.05231200
    84  O          0.10640000       0.41538500       0.94768800
    85  C          0.15320000       0.52401500       0.97641600
    86  C          0.84680000       0.47598500       0.02358400
