data_PEJYAG
_symmetry_space_group_name_H-M    'P1'
_symmetry_Int_Tables_number       1
loop_
_symmetry_equiv_pos_site_id
_symmetry_equiv_pos_as_xyz
1 x,y,z
_cell_length_a                   12.334612
_cell_length_b                   12.428013
_cell_length_c                   15.323116
_cell_angle_alpha                76.4452
_cell_angle_beta                 85.5812
_cell_angle_gamma                60.3302
loop_
_atom_site_label
_atom_site_type_symbol
_atom_site_fract_x
_atom_site_fract_y
_atom_site_fract_z
     1  S          0.04795500      -0.00742400       0.85117300
     2  S          0.54264500       0.31035500       0.79853300
     3  S          0.72462500       0.81958400       0.80572300
     4  O          0.43793150       0.94873860       0.79780100
     5  O          0.22080150       0.69573140       0.83071100
     6  O          0.66664850       0.48730150       0.80095110
     7  N          0.87832830       0.37496170       0.80043120
     8  H          0.94740000       0.37570000       0.80300000
     9  N          0.10867160       0.16726160       0.80528110
    10  N          0.32835170       0.16485170       0.77185120
    11  H          0.25770000       0.22950000       0.77750000
    12  N          0.30786170       0.39746160       0.77351110
    13  N          0.10114160       0.61666160       0.79788110
    14  H          0.10040000       0.55080000       0.78990000
    15  N          0.89438830       0.59167160       0.79907110
    16  C          0.88069810       0.25791190       0.79601130
    17  H          0.82440000       0.24340000       0.83980000
    18  C          0.83998000       0.26402000       0.69988140
    19  H          0.82880000       0.19150000       0.70190000
    20  H          0.76040000       0.34050000       0.68140000
    21  C          0.93478000       0.26402000       0.63158140
    22  C          0.93466000       0.37603000       0.58773180
    23  H          0.87070000       0.45400000       0.59620000
    24  C          0.03015000       0.37134000       0.53152000
    25  H          0.02980000       0.44630000       0.50310000
    26  C          0.12644000       0.25565000       0.51722000
    27  H          0.19050000       0.25310000       0.48010000
    28  C          0.12573000       0.14494000       0.55865190
    29  H          0.18900000       0.06720000       0.54920000
    30  C          0.02982000       0.14953000       0.61479150
    31  H          0.02930000       0.07450000       0.64160000
    32  C          0.01211190       0.15071180       0.81969130
    33  C          0.20381190       0.94591810       0.84159130
    34  H          0.26860000       0.86220000       0.85160000
    35  C          0.21745190       0.05128190       0.81698120
    36  C          0.33862190       0.04848190       0.79536120
    37  C          0.43074190       0.18645190       0.73746140
    38  H          0.51040000       0.11130000       0.76170000
    39  C          0.42612000       0.21152000       0.63356140
    40  H          0.42310000       0.14270000       0.61640000
    41  H          0.34940000       0.28930000       0.61040000
    42  C          0.53472000       0.22352000       0.58910140
    43  C          0.64932000       0.11502000       0.58520140
    44  H          0.65950000       0.03510000       0.61210000
    45  C          0.74842000       0.12503000       0.54155150
    46  H          0.82360000       0.05180000       0.53920000
    47  C          0.73552000       0.24373000       0.50136150
    48  H          0.80150000       0.25030000       0.47200000
    49  C          0.62233000       0.35252000       0.50572160
    50  H          0.61290000       0.43240000       0.47960000
    51  C          0.52332000       0.34242000       0.54891160
    52  H          0.44820000       0.41590000       0.55120000
    53  C          0.41606190       0.29946190       0.76898130
    54  C          0.44298190       0.45682000       0.81901130
    55  H          0.46690000       0.50770000       0.83860000
    56  C          0.32228190       0.48770190       0.80218120
    57  C          0.21155190       0.60939190       0.81188120
    58  C          0.98379810       0.73317180       0.79596130
    59  H          0.98350000       0.76460000       0.84900000
    60  C          0.96678000       0.83832000       0.71046140
    61  H          0.88320000       0.91010000       0.70800000
    62  H          0.02540000       0.86750000       0.71540000
    63  C          0.98658000       0.79342000       0.62401140
    64  C          0.09693000       0.76733000       0.57979160
    65  H          0.15670000       0.77840000       0.60370000
    66  C          0.11924000       0.72494000       0.50052000
    67  H          0.19350000       0.70730000       0.47190000
    68  C          0.02854000       0.70904000       0.46392190
    69  H          0.04220000       0.68120000       0.41080000
    70  C          0.91947000       0.73483000       0.50715180
    71  H          0.85990000       0.72350000       0.48300000
    72  C          0.89647000       0.77762000       0.58676160
    73  H          0.82190000       0.79550000       0.61490000
    74  C          0.87856810       0.70292190       0.80167130
    75  C          0.67695810       0.71159190       0.80448130
    76  H          0.59460000       0.72850000       0.80590000
    77  C          0.77864810       0.59718190       0.80116130
    78  C          0.76858810       0.48235190       0.80053130
    79  S          0.60220500       0.56797500       0.00382300
    80  S          0.10943500       0.38730500      -0.00018400
    81  S          0.80308500       0.87698500       0.01742300
    82  O          0.73371850       0.27830150       0.00376110
    83  O          0.49927160       0.05455150       0.98761890
    84  O          0.26238160       0.50621150       0.03693110
    85  N          0.16536170       0.70796170       0.05865130
    86  H          0.16970000       0.77660000       0.05030000
    87  N          0.95334840       0.94191160       0.06427110
    88  N          0.94003830       0.17275160       0.04690120
    89  H          0.00630000       0.09980000       0.06160000
    90  N          0.17258170       0.15146160       0.02246110
    91  N          0.40033160       0.93712160       0.01723110
    92  H          0.32960000       0.93880000       0.01960000
    93  N          0.37449170       0.72837160       0.02575110
    94  C          0.51493190       0.81645190       0.03008130
    95  H          0.57470000       0.82320000       0.98630000
    96  C          0.57312000       0.77582000       0.12745140
    97  H          0.65850000       0.70690000       0.13030000
    98  H          0.57480000       0.84690000       0.14190000
    99  C          0.49862000       0.73342000       0.19542140
   100  C          0.38182000       0.81992000       0.22033150
   101  H          0.35430000       0.90650000       0.20220000
   102  C          0.30573000       0.77853000       0.27203160
   103  H          0.22780000       0.83740000       0.28750000
   104  C          0.34623000       0.64903000       0.30050160
   105  H          0.29430000       0.62140000       0.33320000
   106  C          0.46463000       0.56093000       0.27993160
   107  H          0.49360000       0.47430000       0.30110000
   108  C          0.53952000       0.60312000       0.22752150
   109  H          0.61810000       0.54380000       0.21350000
   110  C          0.48597190       0.71613190       0.01621130
   111  C          0.49392000       0.51762000       0.01355140
   112  H          0.51090000       0.43640000       0.01200000
   113  C          0.37991190       0.61454190       0.02380130
   114  C          0.26447190       0.60351190       0.03915130
   115  C          0.05182000       0.70936190       0.09307140
   116  H          0.03860000       0.64980000       0.06940000
   117  C          0.06382000       0.66932000       0.19684150
   118  H          0.13940000       0.58810000       0.21440000
   119  H          0.07350000       0.73100000       0.21930000
   120  C          0.95568000       0.65782000       0.24203140
   121  C          0.95828000       0.54052000       0.26294160
   122  H          0.02510000       0.47040000       0.24620000
   123  C          0.86097000       0.52813000       0.30875180
   124  H          0.86430000       0.44950000       0.32310000
   125  C          0.76007000       0.63173000       0.33285160
   126  H          0.69570000       0.62300000       0.36330000
   127  C          0.75537000       0.74933000       0.31126160
   128  H          0.68730000       0.81960000       0.32680000
   129  C          0.85258000       0.76162000       0.26633160
   130  H          0.84880000       0.84040000       0.25230000
   131  C          0.94499810       0.84238190       0.06093130
   132  C          0.75158000       0.03662000       0.00201140
   133  H          0.67340000       0.10190000       0.97790000
   134  C          0.84394810       0.05223190       0.03086120
   135  C          0.83248000       0.17867190       0.02627130
   136  C          0.94638000       0.28726190       0.04482140
   137  H          0.88850000       0.35510000      -0.00350000
   138  C          0.90588000       0.33132000       0.13435150
   139  H          0.91470000       0.40560000       0.13090000
   140  H          0.81830000       0.35660000       0.14130000
   141  C          0.98028000       0.23082000       0.21674150
   142  C          0.93097000       0.15983000       0.26993180
   143  H          0.85230000       0.17500000       0.25500000
   144  C         -0.00134000       0.06573000       0.34585190
   145  H          0.96480000       0.01890000       0.38120000
   146  C          0.11573000       0.04273000       0.36794180
   147  H          0.16080000       0.98010000       0.41830000
   148  C          0.16653000       0.11223000       0.31557190
   149  H          0.24540000       0.09630000       0.33090000
   150  C          0.09983000       0.20602000       0.23982170
   151  H          0.13440000       0.25210000       0.20460000
   152  C          0.07602000       0.26319190       0.02239130
   153  C          0.26372000       0.28162000       0.98995860
   154  H          0.32680000       0.30250000       0.97740000
   155  C          0.27962000       0.16180190       0.00344130
   156  C          0.40332000       0.04751190       0.00144130
   157  Cl         0.29874700       0.37179700       0.35368500
   158  C          0.42692000       0.27362000       0.29952150
   159  C          0.54222000       0.20332000       0.34528150
   160  H          0.55140000       0.20960000       0.40320000
   161  C          0.64303000       0.12363000       0.30341170
   162  H          0.72100000       0.07530000       0.33350000
   163  C          0.62964000       0.11473000       0.21700190
   164  H          0.69810000       0.06030000       0.18930000
   165  C          0.51284000       0.18783000       0.17141190
   166  H          0.50360000       0.18260000       0.11310000
   167  C          0.41163000       0.26713000       0.21259180
   168  H          0.33370000       0.31600000       0.18250000
   169  Cl         0.48641100      -0.00910200       0.46589500
   170  C          0.46363000       0.86402000       0.51916160
   171  C          0.45293000       0.83933000       0.61190160
   172  H          0.45790000       0.89000000       0.64570000
   173  C          0.43473000       0.73773000       0.65325160
   174  H          0.42700000       0.72040000       0.71510000
   175  C          0.42803000       0.66183000       0.60218180
   176  H          0.41780000       0.59260000       0.63010000
   177  C          0.43653000       0.68943000       0.50972170
   178  H          0.43020000       0.63970000       0.47570000
   179  C          0.45452000       0.79122000       0.46718150
   180  H          0.46020000       0.80990000       0.40510000
