data_PEKBIR
_symmetry_space_group_name_H-M    'P1'
_symmetry_Int_Tables_number       1
loop_
_symmetry_equiv_pos_site_id
_symmetry_equiv_pos_as_xyz
1 x,y,z
_cell_length_a                   8.88264
_cell_length_b                   9.00624
_cell_length_c                   11.85125
_cell_angle_alpha                84.64901
_cell_angle_beta                 83.42101
_cell_angle_gamma                89.18201
loop_
_atom_site_label
_atom_site_type_symbol
_atom_site_fract_x
_atom_site_fract_y
_atom_site_fract_z
     1  N          0.47673000       0.44583000       0.74002190
     2  N          0.52327000       0.55417000       0.25997810
     3  C          0.40973000       0.50153000       0.84672000
     4  C          0.59027000       0.49847000       0.15328000
     5  N          0.39863000       0.74253000       0.73352000
     6  N          0.60137000       0.25747000       0.26648000
     7  C          0.34333000       0.65503000       0.82622000
     8  C          0.65667000       0.34497000       0.17378000
     9  C          0.22943000       0.71254000       0.90102000
    10  C          0.77057000       0.28746000       0.09898000
    11  C          0.17914000       0.85764000       0.87883000
    12  C          0.82086000       0.14236000       0.12117000
    13  C          0.24034000       0.94423000       0.78183000
    14  C          0.75966000       0.05577000       0.21817000
    15  C          0.35264000       0.88403000       0.70903000
    16  C          0.64736000       0.11597000       0.29097000
    17  C          0.56303000       0.30833000       0.76152000
    18  C          0.43697000       0.69167000       0.23848000
    19  N          0.72153000       0.39663000       0.58712000
    20  N          0.27847000       0.60337000       0.41288000
    21  C          0.67293000       0.27953000       0.65972000
    22  C          0.32707000       0.72047000       0.34028000
    23  C          0.73103000       0.13943000       0.63873000
    24  C          0.26897000       0.86057000       0.36127000
    25  C          0.83714000       0.12574000       0.54653000
    26  C          0.16286000       0.87426000       0.45347000
    27  C          0.88754000       0.25024000       0.47463000
    28  C          0.11246000       0.74976000       0.52537000
    29  C          0.82553000       0.38633000       0.49732000
    30  C          0.17447000       0.61367000       0.50268000
    31  H          0.39760000       0.42360000       0.68340000
    32  H          0.60240000       0.57640000       0.31660000
    33  H          0.48640000       0.51140000       0.89830000
    34  H          0.51360000       0.48860000       0.10170000
    35  H          0.33240000       0.44140000       0.88830000
    36  H          0.66760000       0.55860000       0.11170000
    37  H          0.46850000       0.70350000       0.68940000
    38  H          0.53150000       0.29650000       0.31060000
    39  H          0.19540000       0.64840000       0.96330000
    40  H          0.80460000       0.35160000       0.03670000
    41  H          0.08850000       0.87750000       0.94540000
    42  H          0.91150000       0.12250000       0.05460000
    43  H          0.21860000       0.06260000       0.76340000
    44  H          0.78140000       0.93740000       0.23660000
    45  H          0.39950000       0.95550000       0.64130000
    46  H          0.60050000       0.04450000       0.35870000
    47  H          0.49740000       0.21740000       0.78530000
    48  H          0.50260000       0.78260000       0.21470000
    49  H          0.62940000       0.32440000       0.83030000
    50  H          0.37060000       0.67560000       0.16970000
    51  H          0.67250000       0.49050000       0.58740000
    52  H          0.32750000       0.50950000       0.41260000
    53  H          0.69940000       0.04940000       0.69130000
    54  H          0.30060000       0.95060000       0.30870000
    55  H          0.88040000       0.02740000       0.53030000
    56  H          0.11960000       0.97260000       0.46970000
    57  H          0.96450000       0.24350000       0.40040000
    58  H          0.03550000       0.75650000       0.59960000
    59  H          0.85440000       0.49840000       0.46230000
    60  H          0.14560000       0.50160000       0.53770000
    61  I          0.65998200       0.76324200       0.49221414
    62  I          0.34001800       0.23675800       0.50778586
    63  I          0.02252200       0.36996200       0.78649317
    64  I          0.97747800       0.63003800       0.21350683
    65  I          0.83492200       0.62939200       0.85039914
    66  I          0.16507800       0.37060800       0.14960086
    67  I          0.65461300       0.87677200       0.93277318
    68  I          0.34538700       0.12322800       0.06722682
