data_PEKLIB
_symmetry_space_group_name_H-M    'P1'
_symmetry_Int_Tables_number       1
loop_
_symmetry_equiv_pos_site_id
_symmetry_equiv_pos_as_xyz
1 x,y,z
_cell_length_a                   8.5173
_cell_length_b                   12.3842
_cell_length_c                   12.4723
_cell_angle_alpha                70.882
_cell_angle_beta                 82.042
_cell_angle_gamma                83.582
loop_
_atom_site_label
_atom_site_type_symbol
_atom_site_fract_x
_atom_site_fract_y
_atom_site_fract_z
     1  C          0.63404000       0.31004000       0.08434000
     2  C          0.36596000       0.68996000       0.91566000
     3  H          0.62500000       0.26930000       0.03490000
     4  H          0.37500000       0.73070000       0.96510000
     5  C          0.50244000       0.37064000       0.11994000
     6  C          0.49756000       0.62936000       0.88006000
     7  Cl         0.31922830       0.36719130       0.07712140
     8  Cl         0.68077170       0.63280870       0.92287860
     9  C          0.51752000       0.43394000       0.18914000
    10  C          0.48248000       0.56606000       0.81086000
    11  F          0.38986000       0.49513000       0.22093000
    12  F          0.61014000       0.50487000       0.77907000
    13  C          0.66222000       0.43545000       0.22565000
    14  C          0.33778000       0.56455000       0.77435000
    15  H          0.67240000       0.47910000       0.27210000
    16  H          0.32760000       0.52090000       0.72790000
    17  C          0.79183000       0.37195000       0.19324000
    18  C          0.20817000       0.62805000       0.80676000
    19  H          0.88900000       0.37090000       0.21970000
    20  H          0.11100000       0.62910000       0.78030000
    21  C          0.77874000       0.30994000       0.12194000
    22  C          0.22126000       0.69006000       0.87806000
    23  C          0.91944000       0.23425000       0.09665000
    24  C          0.08056000       0.76575000       0.90335000
    25  N         -0.00905000       0.25533000      -0.00767000
    26  N          0.00905000       0.74467000       0.00767000
    27  C          0.12206000       0.17784000       0.96744000
    28  C          0.87794000       0.82216000       0.03256000
    29  H          0.12640000       0.10750000       0.03140000
    30  H          0.87360000       0.89250000       0.96860000
    31  H          0.22160000       0.21300000       0.95620000
    32  H          0.77840000       0.78700000       0.04380000
    33  C          0.09946000       0.15084000       0.86194000
    34  C          0.90054000       0.84916000       0.13806000
    35  H          0.00630000       0.10740000       0.87710000
    36  H         -0.00630000       0.89260000       0.12290000
    37  H          0.19060000       0.10310000       0.84370000
    38  H          0.80940000       0.89690000       0.15630000
    39  C          0.07945000       0.25733000       0.75974000
    40  C          0.92055000       0.74267000       0.24026000
    41  C          0.94875000       0.34104000       0.78954000
    42  C          0.05125000       0.65896000       0.21046000
    43  H          0.94940000       0.41300000       0.72750000
    44  H          0.05060000       0.58700000       0.27250000
    45  H          0.84630000       0.31030000       0.79750000
    46  H          0.15370000       0.68970000       0.20250000
    47  C          0.97044000       0.36274000       0.89894000
    48  C          0.02956000       0.63726000       0.10106000
    49  H          0.06290000       0.40620000       0.88650000
    50  H          0.93710000       0.59380000       0.11350000
    51  H          0.87840000       0.40800000       0.92000000
    52  H          0.12160000       0.59200000       0.08000000
    53  F          0.22393000       0.31372000       0.73602000
    54  F          0.77607000       0.68628000       0.26398000
    55  C          0.06265000       0.22623000       0.65594000
    56  C          0.93735000       0.77377000       0.34406000
    57  H          0.14950000       0.17150000       0.64570000
    58  H          0.85050000       0.82850000       0.35430000
    59  H          0.96420000       0.18930000       0.66760000
    60  H          0.03580000       0.81070000       0.33240000
    61  N          0.06255000       0.32673000       0.55043000
    62  N          0.93745000       0.67327000       0.44957000
    63  H          0.96340000       0.38340000       0.55540000
    64  H          0.03660000       0.61660000       0.44460000
    65  H          0.13950000       0.36330000       0.54230000
    66  H          0.86050000       0.63670000       0.45770000
    67  C          0.06796000       0.29514000       0.44504000
    68  C          0.93204000       0.70486000       0.55496000
    69  H          0.05480000       0.36440000       0.38100000
    70  H          0.94520000       0.63560000       0.61900000
    71  H          0.97950000       0.24920000       0.45250000
    72  H          0.02050000       0.75080000       0.54750000
    73  C          0.21976000       0.22954000       0.42024000
    74  C          0.78024000       0.77046000       0.57976000
    75  N          0.34685000       0.24983000       0.45853000
    76  N          0.65315000       0.75017000       0.54147000
    77  C          0.48406000       0.19254000       0.43554000
    78  C          0.51594000       0.80746000       0.56446000
    79  H          0.57390000       0.20430000       0.46380000
    80  H          0.42610000       0.79570000       0.53620000
    81  C          0.50138000       0.11815000       0.37345000
    82  C          0.49862000       0.88185000       0.62655000
    83  C          0.22538000       0.15635000       0.35885000
    84  C          0.77462000       0.84365000       0.64115000
    85  H          0.13360000       0.14440000       0.33270000
    86  H          0.86640000       0.85560000       0.66730000
    87  C          0.36721000       0.10025000       0.33595000
    88  C          0.63279000       0.89975000       0.66405000
    89  H          0.37190000       0.04950000       0.29440000
    90  H          0.62810000       0.95050000       0.70560000
    91  C          0.65888000       0.05735000       0.35235000
    92  C          0.34112000       0.94265000       0.64765000
    93  H          0.64450000       0.97840000       0.36330000
    94  H          0.35550000       0.02160000       0.63670000
    95  H          0.72870000       0.06160000       0.40470000
    96  H          0.27130000       0.93840000       0.59530000
    97  H          0.70430000       0.09290000       0.27550000
    98  H          0.29570000       0.90710000       0.72450000
    99  O          0.96815000       0.15354000       0.17623000
   100  O          0.03185000       0.84646000       0.82377000
   101  O          0.29563000       0.70233000       0.38963000
   102  O          0.70437000       0.29767000       0.61037000
   103  O          0.20503000       0.53382000       0.48363000
   104  O          0.79497000       0.46618000       0.51637000
   105  C          0.31685000       0.59784000       0.44504000
   106  C          0.68315000       0.40216000       0.55496000
   107  C          0.48155000       0.55173000       0.46793000
   108  C          0.51845000       0.44827000       0.53207000
   109  H          0.56330000       0.59990000       0.43440000
   110  H          0.43670000       0.40010000       0.56560000
   111  C          0.50205000       0.98514000       0.05513000
   112  C          0.49795000       0.01486000       0.94487000
   113  H          0.55540000       0.02950000       0.08350000
   114  H          0.44460000       0.97050000       0.91650000
   115  C          0.42586000       0.88404000       0.13745000
   116  C          0.57414000       0.11596000       0.86255000
   117  O          0.45434000       0.86153000       0.24153000
   118  O          0.54566000       0.13847000       0.75847000
   119  H          0.37770000       0.78750000       0.31050000
   120  H          0.62230000       0.21250000       0.68950000
   121  O          0.34337000       0.83044000       0.10733000
   122  O          0.65663000       0.16956000       0.89267000
   123  H          0.62370000       0.21350000       0.68950000
   124  H          0.37630000       0.78650000       0.31050000
