data_PEKSUV
_symmetry_space_group_name_H-M    'P1'
_symmetry_Int_Tables_number       1
loop_
_symmetry_equiv_pos_site_id
_symmetry_equiv_pos_as_xyz
1 x,y,z
_cell_length_a                   7.35544
_cell_length_b                   9.41654
_cell_length_c                   15.62137
_cell_angle_alpha                77.6343
_cell_angle_beta                 87.4155
_cell_angle_gamma                86.3254
loop_
_atom_site_label
_atom_site_type_symbol
_atom_site_fract_x
_atom_site_fract_y
_atom_site_fract_z
     1  H          0.16520000       0.24020000       0.00811300
     2  H          0.83480000       0.75980000      -0.00811300
     3  C          0.87910180       0.14356150       0.32885900
     4  C          0.12089820       0.85643850       0.67114100
     5  C          0.96267170       0.17191150       0.23853900
     6  C          0.03732830       0.82808850       0.76146100
     7  N          0.11299160       0.22356150       0.07132800
     8  N          0.88700840       0.77643850       0.92867200
     9  N          0.72380180       0.08817150       0.49793800
    10  N          0.27619820       0.91182850       0.50206200
    11  C         -0.00068000       0.31158170       0.19395100
    12  C          0.00068000       0.68841830       0.80604900
    13  H          0.97240000       0.39010000       0.22060000
    14  H          0.02760000       0.60990000       0.77940000
    15  C          0.00802000       0.05980170       0.19573100
    16  C         -0.00802000       0.94019830       0.80426900
    17  H         -0.01200000       0.96440000       0.22390000
    18  H          0.01200000       0.03560000       0.77610000
    19  C          0.80522000       0.25403170       0.36670100
    20  C          0.19478000       0.74596830       0.63329900
    21  H          0.80600000       0.35010000       0.33570000
    22  H          0.19400000       0.64990000       0.66430000
    23  C          0.08232000       0.08794180       0.11184100
    24  C          0.91768000       0.91205820       0.88815900
    25  H          0.11110000       0.01170000       0.08350000
    26  H          0.88890000       0.98830000       0.91650000
    27  C          0.07492000       0.33403180       0.11069100
    28  C          0.92508000       0.66596820       0.88930900
    29  H          0.09990000       0.42790000       0.08140000
    30  H          0.90010000       0.57210000       0.91860000
    31  C          0.72992000       0.22246180       0.45065110
    32  C          0.27008000       0.77753820       0.54934890
    33  H          0.68130000       0.29900000       0.47510000
    34  H          0.31870000       0.70100000       0.52490000
    35  C          0.79233000       0.98199810       0.46138120
    36  C          0.20767000       0.01800190       0.53861880
    37  H          0.78760000       0.88680000       0.49340000
    38  H          0.21240000       0.11320000       0.50660000
    39  C          0.87063000       0.00464190       0.37818110
    40  C          0.12937000      -0.00464190       0.62181890
    41  H          0.91760000       0.92590000       0.35540000
    42  H          0.08240000       0.07410000       0.64460000
    43  H          0.34930000       0.95170000       0.40351800
    44  H          0.65070000       0.04830000       0.59648200
    45  H          0.37230000       0.36430000       0.28381800
    46  H          0.62770000       0.63570000       0.71618200
    47  H          0.67930000       0.92880000       0.06121500
    48  H          0.32070000       0.07120000       0.93878500
    49  C          0.47110180       0.16989160       0.22062900
    50  C          0.52889820       0.83010840       0.77937100
    51  O          0.32963160       0.20652130       0.35411700
    52  O          0.67036840       0.79347870       0.64588300
    53  C          0.53799180       0.07151170       0.17071900
    54  C          0.46200820       0.92848830       0.82928100
    55  H          0.53200000       0.97210000       0.19340000
    56  H          0.46800000       0.02790000       0.80660000
    57  O          0.39436170       0.97953870       0.33815800
    58  O          0.60563830       0.02046130       0.66184200
    59  O          0.68571160       0.02773150       0.03674800
    60  O          0.31428840       0.97226850       0.96325200
    61  C          0.39266190       0.12011180       0.31010100
    62  C          0.60733810       0.87988820       0.68989900
    63  C          0.61320190       0.11928170       0.08786100
    64  C          0.38679810       0.88071830       0.91213900
    65  C          0.48095190       0.31946170       0.18620100
    66  C          0.51904810       0.68053830       0.81379900
    67  C          0.62282000       0.26785180       0.05403100
    68  C          0.37718000       0.73214820       0.94596900
    69  H          0.67320000       0.30040000      -0.00190000
    70  H          0.32680000       0.69960000       0.00190000
    71  O          0.41675170       0.42200130       0.23026900
    72  O          0.58324830       0.57799870       0.76973100
    73  C          0.55842000       0.36624180       0.10255110
    74  C          0.44158000       0.63375820       0.89744890
    75  H          0.56640000       0.46530000       0.07950000
    76  H          0.43360000       0.53470000       0.92050000
    77  H          0.15430000       0.67120000       0.21151500
    78  H          0.84570000       0.32880000       0.78848500
    79  H          0.35930000       0.63720000       0.34931500
    80  H          0.64070000       0.36280000       0.65068500
    81  C          0.83694180       0.67265140       0.24113900
    82  C          0.16305820       0.32734860       0.75886100
    83  C          0.65592170       0.66329140       0.27090900
    84  C          0.34407830       0.33670860       0.72909100
    85  H          0.56390000       0.67700000       0.23050000
    86  H          0.43610000       0.32300000       0.76950000
    87  O          0.43579150       0.61870130       0.39155700
    88  O          0.56420850       0.38129870       0.60844300
    89  O          0.75639140       0.72948120       0.09153700
    90  O          0.24360860       0.27051880       0.90846300
    91  C          0.74782000       0.61581150       0.41941900
    92  C          0.25218000       0.38418850       0.58058100
    93  H          0.71800000       0.59720000       0.47910000
    94  H          0.28200000       0.40280000       0.52090000
    95  C          0.88472000       0.70005150       0.14483900
    96  C          0.11528000       0.29994850       0.85516100
    97  C          0.92756190       0.62500160       0.39141900
    98  C          0.07243810       0.37499840       0.60858100
    99  H          0.01850000       0.61270000       0.43220000
   100  H          0.98150000       0.38730000       0.56780000
   101  O          0.04919150       0.69220140       0.12164700
   102  O          0.95080850       0.30779860       0.87835300
   103  C          0.61095180       0.63402140       0.35941900
   104  C          0.38904820       0.36597860       0.64058100
   105  O          0.15369130       0.66039140       0.27632800
   106  O          0.84630870       0.33960860       0.72367200
   107  C          0.97381180       0.65264150       0.30228900
   108  C          0.02618820       0.34735850       0.69771100
