data_PEQCEV
_symmetry_space_group_name_H-M    'P1'
_symmetry_Int_Tables_number       1
loop_
_symmetry_equiv_pos_site_id
_symmetry_equiv_pos_as_xyz
1 x,y,z
_cell_length_a                   11.05937
_cell_length_b                   16.995311
_cell_length_c                   11.81888
_cell_angle_alpha                90.0
_cell_angle_beta                 103.60701
_cell_angle_gamma                90.0
loop_
_atom_site_label
_atom_site_type_symbol
_atom_site_fract_x
_atom_site_fract_y
_atom_site_fract_z
     1  C         -0.01082000       0.10293130       0.70162190
     2  C          0.51082000       0.60293130       0.79837810
     3  C          0.01082000       0.89706870       0.29837810
     4  C          0.48918000       0.39706870       0.20162190
     5  C          0.93188000       0.02445130       0.65332000
     6  C          0.56812000       0.52445130       0.84668000
     7  C          0.06812000       0.97554870       0.34668000
     8  C          0.43188000       0.47554870       0.15332000
     9  H          0.84100000       0.02630000       0.64690000
    10  H          0.65900000       0.52630000       0.85310000
    11  H          0.15900000       0.97370000       0.35310000
    12  H          0.34100000       0.47370000       0.14690000
    13  H          0.94520000       0.01690000       0.57410000
    14  H          0.55480000       0.51690000       0.92590000
    15  H          0.05480000       0.98310000       0.42590000
    16  H          0.44520000       0.48310000       0.07410000
    17  C         -0.01382000       0.95474870       0.72832000
    18  C          0.51382000       0.45474870       0.77168000
    19  C          0.01382000       0.04525130       0.27168000
    20  C          0.48618000       0.54525130       0.22832000
    21  C          0.06502000       0.90179870       0.69152000
    22  C          0.43498000       0.40179870       0.80848000
    23  C          0.93498000       0.09820130       0.30848000
    24  C          0.56502000       0.59820130       0.19152000
    25  H          0.08380000       0.90900000       0.61770000
    26  H          0.41620000       0.40900000       0.88230000
    27  H          0.91620000       0.09100000       0.38230000
    28  H          0.58380000       0.59100000       0.11770000
    29  C          0.11652000       0.83875860       0.76072000
    30  C          0.38348000       0.33875860       0.73928000
    31  C          0.88348000       0.16124140       0.23928000
    32  C          0.61652000       0.66124140       0.26072000
    33  H          0.17070000       0.80290000       0.73550000
    34  H          0.32930000       0.30290000       0.76450000
    35  H          0.82930000       0.19710000       0.26450000
    36  H          0.67070000       0.69710000       0.23550000
    37  C          0.08722000       0.82926860       0.86712000
    38  C          0.41278000       0.32926860       0.63288000
    39  C          0.91278000       0.17073140       0.13288000
    40  C          0.58722000       0.67073140       0.36712000
    41  C          0.00912000       0.88099860       0.90632000
    42  C          0.49088000       0.38099860       0.59368000
    43  C         -0.00912000       0.11900140       0.09368000
    44  C          0.50912000       0.61900140       0.40632000
    45  H         -0.00950000       0.87360000       0.98000000
    46  H          0.50950000       0.37360000       0.52000000
    47  H          0.00950000       0.12640000       0.02000000
    48  H          0.49050000       0.62640000       0.48000000
    49  C          0.95898000       0.94336870       0.83632000
    50  C          0.54102000       0.44336870       0.66368000
    51  C          0.04102000       0.05663130       0.16368000
    52  C          0.45898000       0.55663130       0.33632000
    53  H          0.90520000       0.97910000       0.86210000
    54  H          0.59480000       0.47910000       0.63790000
    55  H          0.09480000       0.02090000       0.13790000
    56  H          0.40520000       0.52090000       0.36210000
    57  C          0.05172000       0.69280860       0.93042000
    58  C          0.44828000       0.19280860       0.56958000
    59  C          0.94828000       0.30719140       0.06958000
    60  C          0.55172000       0.80719140       0.43042000
    61  H          0.10080000       0.64490000       0.95280000
    62  H          0.39920000       0.14490000       0.54720000
    63  H          0.89920000       0.35510000       0.04720000
    64  H          0.60080000       0.85510000       0.45280000
    65  H          0.00380000       0.68810000       0.84960000
    66  H          0.49620000       0.18810000       0.65040000
    67  H         -0.00380000       0.31190000       0.15040000
    68  H          0.50380000       0.81190000       0.34960000
    69  H         -0.00550000       0.70000000       0.98160000
    70  H          0.50550000       0.20000000       0.51840000
    71  H          0.00550000       0.30000000       0.01840000
    72  H          0.49450000       0.80000000       0.48160000
    73  C          0.24333000       0.76622840       0.00922000
    74  C          0.25667000       0.26622840       0.49078000
    75  C          0.75667000       0.23377160      -0.00922000
    76  C          0.74333000       0.73377160       0.50922000
    77  C          0.29113000       0.69740830       0.08912000
    78  C          0.20887000       0.19740830       0.41088000
    79  C          0.70887000       0.30259170       0.91088000
    80  C          0.79113000       0.80259170       0.58912000
    81  H          0.22180000       0.67340000       0.11520000
    82  H          0.27820000       0.17340000       0.38480000
    83  H          0.77820000       0.32660000       0.88480000
    84  H          0.72180000       0.82660000       0.61520000
    85  H          0.35370000       0.71610000       0.15680000
    86  H          0.14630000       0.21610000       0.34320000
    87  H          0.64630000       0.28390000       0.84320000
    88  H          0.85370000       0.78390000       0.65680000
    89  H          0.32860000       0.65830000       0.04690000
    90  H          0.17140000       0.15830000       0.45310000
    91  H          0.67140000       0.34170000       0.95310000
    92  H          0.82860000       0.84170000       0.54690000
    93  C          0.32642000       0.83371840       0.01482000
    94  C          0.17358000       0.33371840       0.48518000
    95  C          0.67358000       0.16628160       0.98518000
    96  C          0.82642000       0.66628160       0.51482000
    97  H          0.39970000       0.81810000       0.98710000
    98  H          0.10030000       0.31810000       0.51290000
    99  H          0.60030000       0.18190000       0.01290000
   100  H          0.89970000       0.68190000       0.48710000
   101  H          0.35250000       0.85220000       0.09540000
   102  H          0.14750000       0.35220000       0.40460000
   103  H          0.64750000       0.14780000       0.90460000
   104  H          0.85250000       0.64780000       0.59540000
   105  H          0.28260000       0.87620000       0.96560000
   106  H          0.21740000       0.37620000       0.53440000
   107  H          0.71740000       0.12380000       0.03440000
   108  H          0.78260000       0.62380000       0.46560000
   109  C          0.82948000       0.22977140       0.61512000
   110  C          0.67052000       0.72977140       0.88488000
   111  C          0.17052000       0.77022860       0.38488000
   112  C          0.32948000       0.27022860       0.11512000
   113  C          0.23912000       0.10007150       0.84072000
   114  C          0.26088000       0.60007150       0.65928000
   115  C          0.76088000       0.89992850       0.15928000
   116  C          0.73912000       0.39992850       0.34072000
   117  F          0.91324860       0.26955900       0.57387140
   118  F          0.58675140       0.76955900       0.92612860
   119  F          0.08675140       0.73044100       0.42612860
   120  F          0.41324860       0.23044100       0.07387140
   121  F          0.74869860       0.28144900       0.64041130
   122  F          0.75130140       0.78144900       0.85958870
   123  F          0.25130140       0.71855100       0.35958870
   124  F          0.24869860       0.21855100       0.14041130
   125  F          0.76747850       0.18350100       0.53024130
   126  F          0.73252150       0.68350100       0.96975870
   127  F          0.23252150       0.81649900       0.46975870
   128  F          0.26747850       0.31649900       0.03024130
   129  F          0.24168140       0.02334900       0.86353130
   130  F          0.25831860       0.52334900       0.63646870
   131  F          0.75831860       0.97665100       0.13646870
   132  F          0.74168140       0.47665100       0.36353130
   133  F          0.35561130       0.12223900       0.84219140
   134  F          0.14438870       0.62223900       0.65780860
   135  F          0.64438870       0.87776100       0.15780860
   136  F          0.85561130       0.37776100       0.34219140
   137  F          0.20508140       0.13733100       0.92695130
   138  F          0.29491860       0.63733100       0.57304870
   139  F          0.79491860       0.86266900       0.07304870
   140  F          0.70508140       0.36266900       0.42695130
   141  N          0.13762000       0.76271880       0.94136190
   142  N          0.36238000       0.26271880       0.55863810
   143  N          0.86238000       0.23728120       0.05863810
   144  N          0.63762000       0.73728120       0.44136190
   145  O          0.17754150       0.06920100       0.62167140
   146  O          0.32245850       0.56920100       0.87832860
   147  O          0.82245850       0.93079900       0.37832860
   148  O          0.67754150       0.43079900       0.12167140
   149  O          0.16019150       0.20657900       0.68826150
   150  O          0.33980850       0.70657900       0.81173850
   151  O          0.83980850       0.79342100       0.31173850
   152  O          0.66019150       0.29342100       0.18826150
   153  O          0.97134840       0.22947100       0.82209150
   154  O          0.52865160       0.72947100       0.67790850
   155  O          0.02865160       0.77052900       0.17790850
   156  O          0.47134840       0.27052900       0.32209150
   157  O          0.79482840       0.13613100       0.77406160
   158  O          0.70517160       0.63613100       0.72593840
   159  O          0.20517160       0.86386900       0.22593840
   160  O          0.29482840       0.36386900       0.27406160
   161  S          0.13609500       0.12392300       0.69763500
   162  S          0.36390500       0.62392300       0.80236500
   163  S          0.86390500       0.87607700       0.30236500
   164  S          0.63609500       0.37607700       0.19763500
   165  S          0.90162500       0.17169300       0.74490500
   166  S          0.59837500       0.67169300       0.75509500
   167  S          0.09837500       0.82830700       0.25509500
   168  S          0.40162500       0.32830700       0.24490500
   169  C          0.45323000       0.04588190       0.30213000
   170  C          0.04677000       0.54588190       0.19787000
   171  C          0.54677000       0.95411810       0.69787000
   172  C          0.95323000       0.45411810       0.80213000
   173  C          0.58313000       0.06922000       0.35474000
   174  C          0.91687000       0.56922000       0.14526000
   175  C          0.41687000       0.93078000       0.64526000
   176  C          0.08313000       0.43078000       0.85474000
   177  H          0.59690000       0.12320000       0.33160000
   178  H          0.90310000       0.62320000       0.16840000
   179  H          0.40310000       0.87680000       0.66840000
   180  H          0.09690000       0.37680000       0.83160000
   181  H          0.64010000       0.03360000       0.32760000
   182  H          0.85990000       0.53360000       0.17240000
   183  H          0.35990000       0.96640000       0.67240000
   184  H          0.14010000       0.46640000       0.82760000
   185  H          0.59840000       0.06620000       0.43970000
   186  H          0.90160000       0.56620000       0.06030000
   187  H          0.40160000       0.93380000       0.56030000
   188  H          0.09840000       0.43380000       0.93970000
   189  C          0.41924000       0.03062000       0.17493000
   190  C          0.08076000       0.53062000       0.32507000
   191  C          0.58076000       0.96938000       0.82507000
   192  C          0.91924000       0.46938000       0.67493000
   193  H          0.33140000       0.01530000       0.15130000
   194  H          0.16860000       0.51530000       0.34870000
   195  H          0.66860000       0.98470000       0.84870000
   196  H          0.83140000       0.48470000       0.65130000
   197  H          0.47110000       0.98810000       0.15640000
   198  H          0.02890000       0.48810000       0.34360000
   199  H          0.52890000       0.01190000       0.84360000
   200  H          0.97110000       0.51190000       0.65640000
   201  H          0.43250000       0.07840000       0.13310000
   202  H          0.06750000       0.57840000       0.36690000
   203  H          0.56750000       0.92160000       0.86690000
   204  H          0.93250000       0.42160000       0.63310000
   205  O          0.37403000       0.04315170       0.35963000
   206  O          0.12597000       0.54315170       0.14037000
   207  O          0.62597000       0.95684830       0.64037000
   208  O          0.87403000       0.45684830       0.85963000
