data_PESGIG
_symmetry_space_group_name_H-M    'P1'
_symmetry_Int_Tables_number       1
loop_
_symmetry_equiv_pos_site_id
_symmetry_equiv_pos_as_xyz
1 x,y,z
_cell_length_a                   11.68124
_cell_length_b                   5.29972
_cell_length_c                   19.41336
_cell_angle_alpha                90.0
_cell_angle_beta                 103.3692
_cell_angle_gamma                90.0
loop_
_atom_site_label
_atom_site_type_symbol
_atom_site_fract_x
_atom_site_fract_y
_atom_site_fract_z
     1  I          0.07794714      -0.00191700       0.35375090
     2  I          0.92205286       0.49808300       0.64624910
     3  I          0.66067214       0.50010600       0.14187090
     4  I          0.33932786       0.00010600       0.85812910
     5  O          0.55092000       0.24655000       0.38837170
     6  O          0.44908000       0.74655000       0.61162830
     7  H          0.56040000       0.06190000       0.36420000
     8  H          0.43960000       0.56190000       0.63580000
     9  O          0.39402000       0.10214000       0.30936130
    10  O          0.60598000       0.60214000       0.69063870
    11  N          0.26582000       0.50431100       0.31411120
    12  N          0.73418000       0.00431100       0.68588880
    13  H          0.27850000       0.50950000       0.26960000
    14  H          0.72150000       0.00950000       0.73040000
    15  H          0.22600000       0.64510000       0.32180000
    16  H          0.77400000       0.14510000       0.67820000
    17  H          0.22270000       0.36490000       0.31870000
    18  H          0.77730000       0.86490000       0.68130000
    19  C          0.44533000       0.25946000       0.35222180
    20  C          0.55467000       0.75946000       0.64777820
    21  C          0.38102000       0.49341200       0.36688140
    22  C          0.61898000      -0.00658800       0.63311860
    23  H          0.42840000       0.64470000       0.36020000
    24  H          0.57160000       0.14470000       0.63980000
    25  C          0.36263000       0.49671700       0.44187160
    26  C          0.63737000      -0.00328300       0.55812840
    27  H          0.43860000       0.51830000       0.47560000
    28  H          0.56140000       0.01830000       0.52440000
    29  H          0.32680000       0.33710000       0.45150000
    30  H          0.67320000       0.83710000       0.54850000
    31  H          0.31040000       0.63690000       0.44690000
    32  H          0.68960000       0.13690000       0.55310000
    33  O          0.65103000       0.84786000       0.38612000
    34  O          0.34897000       0.34786000       0.61388000
    35  O          0.75072000       0.94734000       0.30407130
    36  O          0.24928000       0.44734000       0.69592870
    37  N          0.86202190       0.50101000       0.31439110
    38  N          0.13797810       0.00101000       0.68560890
    39  H          0.82420000       0.52440000       0.26830000
    40  H          0.17580000       0.02440000       0.73170000
    41  H          0.89100000       0.34110000       0.32040000
    42  H          0.10900000       0.84110000       0.67960000
    43  H          0.92230000       0.61320000       0.32630000
    44  H          0.07770000       0.11320000       0.67370000
    45  C          0.72413000       0.80296000       0.34680190
    46  C          0.27587000       0.30296000       0.65319810
    47  C          0.77783000       0.54107000       0.36050160
    48  C          0.22217000       0.04107000       0.63949840
    49  H          0.71300000       0.41460000       0.34680000
    50  H          0.28700000       0.91460000       0.65320000
    51  C          0.83984000       0.49291700       0.43708170
    52  C          0.16016000      -0.00708300       0.56291830
    53  H          0.78410000       0.51680000       0.46730000
    54  H          0.21590000       0.01680000       0.53270000
    55  H          0.90540000       0.61130000       0.45130000
    56  H          0.09460000       0.11130000       0.54870000
    57  H          0.86980000       0.31960000       0.44210000
    58  H          0.13020000       0.81960000       0.55790000
    59  O          0.19672000       0.74085000       0.11697170
    60  O          0.80328000       0.24085000       0.88302830
    61  O          0.35392000       0.60374000       0.19711130
    62  O          0.64608000       0.10374000       0.80288870
    63  N          0.48094190       0.00531000       0.19117110
    64  N          0.51905810       0.50531000       0.80882890
    65  H          0.47080000      -0.01670000       0.23590000
    66  H          0.52920000       0.48330000       0.76410000
    67  H          0.51610000       0.15690000       0.18820000
    68  H          0.48390000       0.65690000       0.81180000
    69  H          0.52710000       0.87950000       0.18070000
    70  H          0.47290000       0.37950000       0.81930000
    71  C          0.30133000       0.75786000       0.15359180
    72  C          0.69867000       0.25786000       0.84640820
    73  C          0.36422000      -0.00068800       0.13987130
    74  C          0.63578000       0.49931200       0.86012870
    75  H          0.31700000       0.14720000       0.14950000
    76  H          0.68300000       0.64720000       0.85050000
    77  C          0.37873000       0.01831500       0.06448160
    78  C          0.62127000       0.51831500       0.93551840
    79  H          0.30130000       0.00720000       0.03160000
    80  H          0.69870000       0.50720000       0.96840000
    81  H          0.42860000       0.87990000       0.05510000
    82  H          0.57140000       0.37990000       0.94490000
    83  H          0.41540000       0.18010000       0.05790000
    84  H          0.58460000       0.68010000       0.94210000
    85  O          0.09943000       0.33295000       0.11682000
    86  O          0.90057000       0.83295000       0.88318000
    87  O         -0.01232000       0.44654000       0.19155140
    88  O          0.01232000       0.94654000       0.80844860
    89  N          0.87722810       0.00281000       0.17963110
    90  N          0.12277190       0.50281000       0.82036890
    91  H          0.91370000       0.01900000       0.22620000
    92  H          0.08630000       0.51900000       0.77380000
    93  H          0.84460000       0.84650000       0.17180000
    94  H          0.15540000       0.34650000       0.82820000
    95  H          0.81990000       0.12180000       0.16780000
    96  H          0.18010000       0.62180000       0.83220000
    97  C          0.01893000       0.29926000       0.15128190
    98  C          0.98107000       0.79926000       0.84871810
    99  C          0.96477000       0.03757000       0.13561160
   100  C          0.03523000       0.53757000       0.86438840
   101  H          0.02820000       0.90820000       0.14980000
   102  H          0.97180000       0.40820000       0.85020000
   103  C          0.90716000       0.00191600       0.05870170
   104  C          0.09284000       0.50191600       0.94129830
   105  H          0.96770000      -0.02450000       0.03190000
   106  H          0.03230000       0.47550000       0.96810000
   107  H          0.86110000       0.15250000       0.04080000
   108  H          0.13890000       0.65250000       0.95920000
   109  H          0.85510000       0.85470000       0.05310000
   110  H          0.14490000       0.35470000       0.94690000
   111  H          0.12040000       0.52415000       0.12620000
   112  H          0.87960000       0.02415000       0.87380000
