data_PESGEC
_symmetry_space_group_name_H-M    'P1'
_symmetry_Int_Tables_number       1
loop_
_symmetry_equiv_pos_site_id
_symmetry_equiv_pos_as_xyz
1 x,y,z
_cell_length_a                   5.18171
_cell_length_b                   18.8214
_cell_length_c                   11.1732
_cell_angle_alpha                90.0
_cell_angle_beta                 90.23501
_cell_angle_gamma                90.0
loop_
_atom_site_label
_atom_site_type_symbol
_atom_site_fract_x
_atom_site_fract_y
_atom_site_fract_z
     1  Br         0.01057130       0.50000300       0.97371500
     2  Br        -0.01057130       0.00000300       0.02628500
     3  Br         0.51387130       0.30715300       0.29355500
     4  Br         0.48612870       0.80715300       0.70644500
     5  O          0.77191000       0.54502000       0.52614000
     6  O          0.22809000       0.04502000       0.47386000
     7  O          0.90468000       0.45642000       0.64264000
     8  O          0.09532000       0.95642000       0.35736000
     9  N          0.49571100       0.45953000       0.78315000
    10  N          0.50428900       0.95953000       0.21685000
    11  H          0.47630000       0.41620000       0.74810000
    12  H          0.52370000       0.91620000       0.25190000
    13  H          0.35850000       0.46830000       0.83150000
    14  H          0.64150000       0.96830000       0.16850000
    15  H          0.64350000       0.45990000       0.82740000
    16  H          0.35650000       0.95990000       0.17260000
    17  C          0.75111300       0.50344000       0.61505000
    18  C          0.24888700       0.00344000       0.38495000
    19  C          0.51021300       0.51533000       0.68905000
    20  C          0.48978700       0.01533000       0.31095000
    21  H          0.35620000       0.51040000       0.63540000
    22  H          0.64380000       0.01040000       0.36460000
    23  C          0.50471800       0.58894000       0.74627000
    24  C          0.49528200       0.08894000       0.25373000
    25  H          0.50880000       0.62520000       0.68340000
    26  H          0.49120000       0.12520000       0.31660000
    27  H          0.65530000       0.59460000       0.79870000
    28  H          0.34470000       0.09460000       0.20130000
    29  H          0.34660000       0.59420000       0.79320000
    30  H          0.65340000       0.09420000       0.20680000
    31  O          0.17721000       0.54293000       0.41634000
    32  O          0.82279000       0.04293000       0.58366000
    33  H          0.06211000       0.53440000       0.47440000
    34  H          0.93789000       0.03440000       0.52560000
    35  O          0.06939000       0.45863000       0.28564000
    36  O          0.93061000       0.95863000       0.71436000
    37  N          0.51011200       0.47223000       0.16595000
    38  N          0.48988800       0.97223000       0.83405000
    39  H          0.50520000       0.42580000       0.18830000
    40  H          0.49480000       0.92580000       0.81170000
    41  H          0.66590000       0.48200000       0.13250000
    42  H          0.33410000       0.98200000       0.86750000
    43  H          0.38260000       0.48080000       0.11150000
    44  H          0.61740000       0.98080000       0.88850000
    45  C          0.21631100       0.50274000       0.32625000
    46  C          0.78368900       0.00274000       0.67375000
    47  C          0.47231500       0.51744000       0.27116000
    48  C          0.52768500       0.01744000       0.72884000
    49  H          0.61000000       0.50620000       0.33120000
    50  H          0.39000000       0.00620000       0.66880000
    51  C          0.50261900       0.59554000       0.23217000
    52  C          0.49738100       0.09554000       0.76783000
    53  H          0.48760000       0.62650000       0.30210000
    54  H          0.51240000       0.12650000       0.69790000
    55  H          0.36720000       0.60750000       0.17400000
    56  H          0.63280000       0.10750000       0.82600000
    57  H          0.67220000       0.60210000       0.19520000
    58  H          0.32780000       0.10210000       0.80480000
    59  O          0.25709000       0.26022000       0.74924000
    60  O          0.74291000       0.76022000       0.25076000
    61  O          0.40398000       0.34612000       0.63164000
    62  O          0.59602000       0.84612000       0.36836000
    63  N          0.00431100       0.34463000       0.48595000
    64  N         -0.00431100       0.84463000       0.51405000
    65  H          0.00460000       0.38820000       0.52120000
    66  H         -0.00460000       0.88820000       0.47880000
    67  H          0.86040000       0.33990000       0.43960000
    68  H          0.13960000       0.83990000       0.56040000
    69  H          0.14720000       0.33990000       0.43950000
    70  H          0.85280000       0.83990000       0.56050000
    71  C          0.24411100       0.30083000       0.65915000
    72  C          0.75588900       0.80083000       0.34085000
    73  C          0.00531200       0.28863000       0.57996000
    74  C         -0.00531200       0.78863000       0.42004000
    75  H          0.84680000       0.29370000       0.62990000
    76  H          0.15320000       0.79370000       0.37010000
    77  C          0.00731900       0.21564000       0.52447000
    78  C         -0.00731900       0.71564000       0.47553000
    79  H         -0.00650000       0.17960000       0.58740000
    80  H          0.00650000       0.67960000       0.41260000
    81  H          0.16880000       0.20870000       0.48050000
    82  H          0.83120000       0.70870000       0.51950000
    83  H          0.86100000       0.21100000       0.46910000
    84  H          0.13900000       0.71100000       0.53090000
    85  O          0.65441000       0.25683000       0.86244000
    86  O          0.34559000       0.75683000       0.13756000
    87  H          0.53312000       0.27930000       0.81860000
    88  H          0.46688000       0.77930000       0.18140000
    89  O          0.56409000       0.34862000       0.98174000
    90  O          0.43591000       0.84862000       0.01826000
    91  N          0.00941000       0.33723000       0.10305000
    92  N         -0.00941000       0.83723000       0.89695000
    93  H          0.01410000       0.38240000       0.07440000
    94  H         -0.01410000       0.88240000       0.92560000
    95  H          0.16130000       0.32700000       0.14040000
    96  H          0.83870000       0.82700000       0.85960000
    97  H          0.87740000       0.33290000       0.15600000
    98  H          0.12260000       0.83290000       0.84400000
    99  C          0.70241100       0.30103000       0.94775000
   100  C          0.29758900       0.80103000       0.05225000
   101  C          0.96901300       0.28664000       0.00156000
   102  C          0.03098700       0.78664000      -0.00156000
   103  H          0.10220000       0.29630000       0.93910000
   104  H          0.89780000       0.79630000       0.06090000
   105  C          0.00441700       0.21144000       0.04628000
   106  C         -0.00441700       0.71144000       0.95372000
   107  H         -0.01610000       0.17810000       0.97940000
   108  H          0.01610000       0.67810000       0.02060000
   109  H          0.87480000       0.20110000       0.10750000
   110  H          0.12520000       0.70110000       0.89250000
   111  H          0.17740000       0.20620000       0.08090000
   112  H          0.82260000       0.70620000       0.91910000
