data_PESREM
_symmetry_space_group_name_H-M    'P1'
_symmetry_Int_Tables_number       1
loop_
_symmetry_equiv_pos_site_id
_symmetry_equiv_pos_as_xyz
1 x,y,z
_cell_length_a                   10.83513
_cell_length_b                   11.80743
_cell_length_c                   17.01794
_cell_angle_alpha                90.0
_cell_angle_beta                 92.34301
_cell_angle_gamma                90.0
loop_
_atom_site_label
_atom_site_type_symbol
_atom_site_fract_x
_atom_site_fract_y
_atom_site_fract_z
     1  I          0.13317380       0.02664380       0.19154150
     2  I          0.36682620       0.52664380       0.30845850
     3  I          0.86682620       0.97335620       0.80845850
     4  I          0.63317380       0.47335620       0.69154150
     5  F          0.16345900       0.16915900       0.03171600
     6  F          0.33654100       0.66915900       0.46828400
     7  F          0.83654100       0.83084100       0.96828400
     8  F          0.66345900       0.33084100       0.53171600
     9  F          0.93443100       0.85287100       0.11296500
    10  F          0.56556900       0.35287100       0.38703500
    11  F          0.06556900       0.14712900       0.88703500
    12  F          0.43443100       0.64712900       0.61296500
    13  C          0.05187130       0.01186120       0.07733800
    14  C          0.44812870       0.51186120       0.42266200
    15  C          0.94812870       0.98813880       0.92266200
    16  C          0.55187130       0.48813880       0.57733800
    17  C          0.08266130       0.08421130       0.01737800
    18  C          0.41733870       0.58421130       0.48262200
    19  C          0.91733870       0.91578870       0.98262200
    20  C          0.58266130       0.41578870       0.51737800
    21  C          0.96792870       0.92756870       0.05761800
    22  C          0.53207130       0.42756870       0.44238200
    23  C          0.03207130       0.07243130       0.94238200
    24  C          0.46792870       0.57243130       0.55761800
    25  Br         0.22523416       0.54480615       0.14372690
    26  Br         0.27476584       0.04480615       0.35627310
    27  Br         0.77476584       0.45519385       0.85627310
    28  Br         0.72523416       0.95519385       0.64372690
    29  P          0.62401300       0.10719300       0.20642200
    30  P          0.87598700       0.60719300       0.29357800
    31  P          0.37598700       0.89280700       0.79357800
    32  P          0.12401300       0.39280700       0.70642200
    33  C          0.49508130       0.20070130       0.22056900
    34  C          0.00491870       0.70070130       0.27943100
    35  C          0.50491870       0.79929870       0.77943100
    36  C         -0.00491870       0.29929870       0.72056900
    37  H          0.43840000       0.16470000       0.25730000
    38  H          0.06160000       0.66470000       0.24270000
    39  H          0.56160000       0.83530000       0.74270000
    40  H          0.93840000       0.33530000       0.75730000
    41  H          0.52600000       0.27180000       0.24520000
    42  H          0.97400000       0.77180000       0.25480000
    43  H          0.47400000       0.72820000       0.75480000
    44  H          0.02600000       0.22820000       0.74520000
    45  C          0.42307150       0.22937140       0.14395100
    46  C          0.07692850       0.72937140       0.35604900
    47  C          0.57692850       0.77062860       0.85604900
    48  C          0.92307150       0.27062860       0.64395100
    49  H          0.35440000       0.28010000       0.15520000
    50  H          0.14560000       0.78010000       0.34480000
    51  H          0.64560000       0.71990000       0.84480000
    52  H          0.85440000       0.21990000       0.65520000
    53  H          0.39060000       0.15960000       0.11980000
    54  H          0.10940000       0.65960000       0.38020000
    55  H          0.60940000       0.84040000       0.88020000
    56  H          0.89060000       0.34040000       0.61980000
    57  H          0.47810000       0.26680000       0.10780000
    58  H          0.02190000       0.76680000       0.39220000
    59  H          0.52190000       0.73320000       0.89220000
    60  H          0.97810000       0.23320000       0.60780000
    61  C          0.73021120       0.17368120       0.14271800
    62  C          0.76978880       0.67368120       0.35728200
    63  C          0.26978880       0.82631880       0.85728200
    64  C          0.23021120       0.32631880       0.64271800
    65  C          0.70739130       0.17187130       0.06109800
    66  C          0.79260870       0.67187130       0.43890200
    67  C          0.29260870       0.82812870       0.93890200
    68  C          0.20739130       0.32812870       0.56109800
    69  H          0.63910000       0.13060000       0.03910000
    70  H          0.86090000       0.63060000       0.46090000
    71  H          0.36090000       0.86940000       0.96090000
    72  H          0.13910000       0.36940000       0.53910000
    73  C          0.78436140       0.23026140       0.01261900
    74  C          0.71563860       0.73026140       0.48738100
    75  C          0.21563860       0.76973860       0.98738100
    76  C          0.28436140       0.26973860       0.51261900
    77  H          0.76890000       0.22920000       0.95730000
    78  H          0.73110000       0.72920000       0.54270000
    79  H          0.23110000       0.77080000       0.04270000
    80  H          0.26890000       0.27080000       0.45730000
    81  C          0.88440140       0.29051130       0.04464900
    82  C          0.61559860       0.79051130       0.45535100
    83  C          0.11559860       0.70948870       0.95535100
    84  C          0.38440140       0.20948870       0.54464900
    85  H          0.93730000       0.33030000       0.01110000
    86  H          0.56270000       0.83030000       0.48890000
    87  H          0.06270000       0.66970000       0.98890000
    88  H          0.43730000       0.16970000       0.51110000
    89  C          0.90744140       0.29283130       0.12520900
    90  C          0.59255860       0.79283130       0.37479100
    91  C          0.09255860       0.70716870       0.87479100
    92  C          0.40744140       0.20716870       0.62520900
    93  H          0.97610000       0.33400000       0.14670000
    94  H          0.52390000       0.83400000       0.35330000
    95  H          0.02390000       0.66600000       0.85330000
    96  H          0.47610000       0.16600000       0.64670000
    97  C          0.83050130       0.23517120       0.17454800
    98  C          0.66949870       0.73517120       0.32545200
    99  C          0.16949870       0.76482880       0.82545200
   100  C          0.33050130       0.26482880       0.67454800
   101  H          0.84590000       0.23740000       0.22990000
   102  H          0.65410000       0.73740000       0.27010000
   103  H          0.15410000       0.76260000       0.77010000
   104  H          0.34590000       0.26260000       0.72990000
   105  C          0.70112130       0.07595120       0.29907800
   106  C          0.79887870       0.57595120       0.20092200
   107  C          0.29887870       0.92404880       0.70092200
   108  C          0.20112130       0.42404880       0.79907800
   109  C          0.64377140       0.09482130       0.36974800
   110  C          0.85622860       0.59482130       0.13025200
   111  C          0.35622860       0.90517870       0.63025200
   112  C          0.14377140       0.40517870       0.86974800
   113  H          0.56420000       0.12860000       0.36990000
   114  H          0.93580000       0.62860000       0.13010000
   115  H          0.43580000       0.87140000       0.63010000
   116  H          0.06420000       0.37140000       0.86990000
   117  C          0.70439160       0.06355140       0.43994900
   118  C          0.79560840       0.56355140       0.06005100
   119  C          0.29560840       0.93644860       0.56005100
   120  C          0.20439160       0.43644860       0.93994900
   121  H          0.66610000       0.07630000       0.48840000
   122  H          0.83390000       0.57630000       0.01160000
   123  H          0.33390000       0.92370000       0.51160000
   124  H          0.16610000       0.42370000       0.98840000
   125  C          0.82012170       0.01404140       0.43984100
   126  C          0.67987830       0.51404140       0.06015900
   127  C          0.17987830       0.98595860       0.56015900
   128  C          0.32012170       0.48595860       0.93984100
   129  H          0.86080000      -0.00700000       0.48820000
   130  H          0.63920000       0.49300000       0.01180000
   131  H          0.13920000       0.00700000       0.51180000
   132  H          0.36080000       0.50700000       0.98820000
   133  C          0.87681150      -0.00497140       0.36961100
   134  C          0.62318850       0.49502860       0.13038900
   135  C          0.12318850       0.00497140       0.63038900
   136  C          0.37681150       0.50497140       0.86961100
   137  H          0.95660000       0.96160000       0.36980000
   138  H          0.54340000       0.46160000       0.13020000
   139  H          0.04340000       0.03840000       0.63020000
   140  H          0.45660000       0.53840000       0.86980000
   141  C          0.81724140       0.02475120       0.29900900
   142  C          0.68275860       0.52475120       0.20099100
   143  C          0.18275860       0.97524880       0.70099100
   144  C          0.31724140       0.47524880       0.79900900
   145  H          0.85530000       0.01030000       0.25070000
   146  H          0.64470000       0.51030000       0.24930000
   147  H          0.14470000      -0.01030000       0.74930000
   148  H          0.35530000       0.48970000       0.75070000
   149  C          0.56929130       0.97544890       0.16531800
   150  C          0.93070870       0.47544890       0.33468200
   151  C          0.43070870       0.02455110       0.83468200
   152  C          0.06929130       0.52455110       0.66531800
   153  C          0.63583140       0.91459870       0.11082900
   154  C          0.86416860       0.41459870       0.38917100
   155  C          0.36416860       0.08540130       0.88917100
   156  C          0.13583140       0.58540130       0.61082900
   157  H          0.70890000       0.94570000       0.09050000
   158  H          0.79110000       0.44570000       0.40950000
   159  H          0.29110000       0.05430000       0.90950000
   160  H          0.20890000       0.55430000       0.59050000
   161  C          0.59476150       0.80860860       0.08650100
   162  C          0.90523850       0.30860860       0.41349900
   163  C          0.40523850       0.19139140       0.91349900
   164  C          0.09476150       0.69139140       0.58650100
   165  H          0.63980000       0.76700000       0.04950000
   166  H          0.86020000       0.26700000       0.45050000
   167  H          0.36020000       0.23300000       0.95050000
   168  H          0.13980000       0.73300000       0.54950000
   169  C          0.48877150       0.76331870       0.11584100
   170  C          0.01122850       0.26331870       0.38415900
   171  C          0.51122850       0.23668130       0.88415900
   172  C         -0.01122850       0.73668130       0.61584100
   173  H          0.46090000       0.69080000       0.09860000
   174  H          0.03910000       0.19080000       0.40140000
   175  H          0.53910000       0.30920000       0.90140000
   176  H          0.96090000       0.80920000       0.59860000
   177  C          0.42291140       0.82278860       0.17011100
   178  C          0.07708860       0.32278860       0.32988900
   179  C          0.57708860       0.17721140       0.82988900
   180  C          0.92291140       0.67721140       0.67011100
   181  H          0.35010000       0.79100000       0.19020000
   182  H          0.14990000       0.29100000       0.30980000
   183  H          0.64990000       0.20900000       0.80980000
   184  H          0.85010000       0.70900000       0.69020000
   185  C          0.46292130       0.92890870       0.19529900
   186  C          0.03707870       0.42890870       0.30470100
   187  C          0.53707870       0.07109130       0.80470100
   188  C          0.96292130       0.57109130       0.69529900
   189  H          0.41790000       0.96960000       0.23280000
   190  H          0.08210000       0.46960000       0.26720000
   191  H          0.58210000       0.03040000       0.76720000
   192  H          0.91790000       0.53040000       0.73280000
