data_PETCEA
_symmetry_space_group_name_H-M    'P1'
_symmetry_Int_Tables_number       1
loop_
_symmetry_equiv_pos_site_id
_symmetry_equiv_pos_as_xyz
1 x,y,z
_cell_length_a                   9.85025
_cell_length_b                   10.63425
_cell_length_c                   14.89437
_cell_angle_alpha                90.0
_cell_angle_beta                 103.3182
_cell_angle_gamma                90.0
loop_
_atom_site_label
_atom_site_type_symbol
_atom_site_fract_x
_atom_site_fract_y
_atom_site_fract_z
     1  C          0.06103000       0.21413000       0.98418000
     2  C          0.06103000       0.78587000       0.48418000
     3  C          0.56103000       0.71413000       0.98418000
     4  C          0.56103000       0.28587000       0.48418000
     5  H          0.97263300       0.24955900       0.96561100
     6  H          0.97263300       0.75044100       0.46561100
     7  H          0.47263300       0.74955900       0.96561100
     8  H          0.47263300       0.25044100       0.46561100
     9  C          0.13003000       0.17383000       0.92268000
    10  C          0.13003000       0.82617000       0.42268000
    11  C          0.63003000       0.67383000       0.92268000
    12  C          0.63003000       0.32617000       0.42268000
    13  H          0.09179700       0.18070400       0.85966400
    14  H          0.09179700       0.81929600       0.35966400
    15  H          0.59179700       0.68070400       0.85966400
    16  H          0.59179700       0.31929600       0.35966400
    17  C          0.54263000       0.01133000       0.30882000
    18  C          0.54263000      -0.01133000       0.80882000
    19  C          0.04263000       0.51133000       0.30882000
    20  C          0.04263000       0.48867000       0.80882000
    21  H          0.57439500      -0.00577800       0.37137700
    22  H          0.57439500       0.00577800       0.87137700
    23  H          0.07439500       0.49422200       0.37137700
    24  H          0.07439500       0.50577800       0.87137700
    25  C          0.61293000       0.97217000       0.24802000
    26  C          0.61293000       0.02783000       0.74802000
    27  C          0.11293000       0.47217000       0.24802000
    28  C          0.11293000       0.52783000       0.74802000
    29  H          0.69487300       0.92619900       0.26648800
    30  H          0.69487300       0.07380100       0.76648800
    31  H          0.19487300       0.42619900       0.26648800
    32  H          0.19487300       0.57380100       0.76648800
    33  S          0.14161700       0.19837600       0.10094400
    34  S          0.14161700       0.80162400       0.60094400
    35  S          0.64161700       0.69837600       0.10094400
    36  S          0.64161700       0.30162400       0.60094400
    37  S          0.29495700       0.10754600       0.96431500
    38  S          0.29495700       0.89245400       0.46431500
    39  S          0.79495700       0.60754600       0.96431500
    40  S          0.79495700       0.39245400       0.46431500
    41  S          0.38914700       0.09570700       0.26795500
    42  S          0.38914700       0.90429300       0.76795500
    43  S          0.88914700       0.59570700       0.26795500
    44  S          0.88914700       0.40429300       0.76795500
    45  S          0.54641700       0.00971600       0.13212500
    46  S          0.54641700      -0.00971600       0.63212500
    47  S          0.04641700       0.50971600       0.13212500
    48  S          0.04641700       0.49028400       0.63212500
    49  C          0.39403000       0.08062000       0.15076190
    50  C          0.39403000       0.91938000       0.65076190
    51  C          0.89403000       0.58062000       0.15076190
    52  C          0.89403000       0.41938000       0.65076190
    53  C          0.29043000       0.12142000       0.08171190
    54  C          0.29043000       0.87858000       0.58171190
    55  C          0.79043000       0.62142000       0.08171190
    56  C          0.79043000       0.37858000       0.58171190
    57  S          0.83571800       0.75683300       0.69636500
    58  S          0.83571800       0.24316700       0.19636500
    59  S          0.33571800       0.25683300       0.69636500
    60  S          0.33571800       0.74316700       0.19636500
    61  F          0.42742000       0.57226830       0.68976130
    62  F          0.42742000       0.42773170       0.18976130
    63  F          0.92742000       0.07226830       0.68976130
    64  F          0.92742000       0.92773170       0.18976130
    65  N          0.69783000       0.69248000       0.71792170
    66  N          0.69783000       0.30752000       0.21792170
    67  N          0.19783000       0.19248000       0.71792170
    68  N          0.19783000       0.80752000       0.21792170
    69  F          0.65722000       0.69492810       0.39695130
    70  F          0.65722000       0.30507190       0.89695130
    71  F          0.15722000       0.19492810       0.39695130
    72  F          0.15722000       0.80507190       0.89695130
    73  C          0.67693000       0.69187000       0.55932000
    74  C          0.67693000       0.30813000       0.05932000
    75  C          0.17693000       0.19187000       0.55932000
    76  C          0.17693000       0.80813000       0.05932000
    77  F          0.29202000       0.52169820       0.51145150
    78  F          0.29202000       0.47830180       0.01145150
    79  F          0.79202000       0.02169820       0.51145150
    80  F          0.79202000       0.97830180       0.01145150
    81  F          0.40342000       0.57910810       0.37132130
    82  F          0.40342000       0.42089190       0.87132130
    83  F          0.90342000       0.07910810       0.37132130
    84  F          0.90342000       0.92089190       0.87132130
    85  C          0.41773000       0.57697000       0.53102000
    86  C          0.41773000       0.42303000       0.03102000
    87  C          0.91773000       0.07697000       0.53102000
    88  C          0.91773000       0.92303000       0.03102000
    89  N          0.80253000       0.74678000       0.58522180
    90  N          0.80253000       0.25322000       0.08522180
    91  N          0.30253000       0.24678000       0.58522180
    92  N          0.30253000       0.75322000       0.08522180
    93  C          0.47773000       0.60737000       0.45612000
    94  C          0.47773000       0.39263000       0.95612000
    95  C          0.97773000       0.10737000       0.45612000
    96  C          0.97773000       0.89263000       0.95612000
    97  C          0.61703000       0.66068000       0.63575190
    98  C          0.61703000       0.33932000       0.13575190
    99  C          0.11703000       0.16068000       0.63575190
   100  C          0.11703000       0.83932000       0.13575190
   101  C          0.60393000       0.66417000       0.46881190
   102  C          0.60393000       0.33583000       0.96881190
   103  C          0.10393000       0.16417000       0.46881190
   104  C          0.10393000       0.83583000       0.96881190
   105  C          0.48453000       0.60247000       0.61902000
   106  C          0.48453000       0.39753000       0.11902000
   107  C         -0.01547000       0.10247000       0.61902000
   108  C         -0.01547000       0.89753000       0.11902000
