data_PETPUB
_symmetry_space_group_name_H-M    'P1'
_symmetry_Int_Tables_number       1
loop_
_symmetry_equiv_pos_site_id
_symmetry_equiv_pos_as_xyz
1 x,y,z
_cell_length_a                   18.21498
_cell_length_b                   16.43797
_cell_length_c                   7.47364
_cell_angle_alpha                90.0
_cell_angle_beta                 99.6312
_cell_angle_gamma                90.0
loop_
_atom_site_label
_atom_site_type_symbol
_atom_site_fract_x
_atom_site_fract_y
_atom_site_fract_z
     1  N          0.29264700       0.32751700       0.40896180
     2  N          0.70735300       0.82751700       0.09103820
     3  N          0.70735300       0.67248300       0.59103820
     4  N          0.29264700       0.17248300       0.90896180
     5  C          0.30085800       0.40847800       0.40392000
     6  C          0.69914200       0.90847800       0.09608000
     7  C          0.69914200       0.59152200       0.59608000
     8  C          0.30085800       0.09152200       0.90392000
     9  H          0.33990000       0.43030000       0.34880000
    10  H          0.66010000       0.93030000       0.15120000
    11  H          0.66010000       0.56970000       0.65120000
    12  H          0.33990000       0.06970000       0.84880000
    13  C          0.25436800       0.46153800       0.47603190
    14  C          0.74563200       0.96153800       0.02396810
    15  C          0.74563200       0.53846200       0.52396810
    16  C          0.25436800       0.03846200       0.97603190
    17  N          0.27126700       0.54567700       0.46323170
    18  N          0.72873300       0.04567700       0.03676830
    19  N          0.72873300       0.45432300       0.53676830
    20  N          0.27126700       0.95432300       0.96323170
    21  C          0.19672800       0.43036900       0.55702000
    22  C          0.80327200       0.93036900       0.94298000
    23  C          0.80327200       0.56963100       0.44298000
    24  C          0.19672800       0.06963100       0.05702000
    25  H          0.16440000       0.46540000       0.60840000
    26  H          0.83560000       0.96540000       0.89160000
    27  H          0.83560000       0.53460000       0.39160000
    28  H          0.16440000       0.03460000       0.10840000
    29  C          0.18814800       0.34703900       0.56012000
    30  C          0.81185200       0.84703900       0.93988000
    31  C          0.81185200       0.65296100       0.43988000
    32  C          0.18814800       0.15296100       0.06012000
    33  H          0.14920000       0.32360000       0.61310000
    34  H          0.85080000       0.82360000       0.88690000
    35  H          0.85080000       0.67640000       0.38690000
    36  H          0.14920000       0.17640000       0.11310000
    37  C          0.23692800       0.29780900       0.48532000
    38  C          0.76307200       0.79780900       0.01468000
    39  C          0.76307200       0.70219100       0.51468000
    40  C          0.23692800       0.20219100      -0.01468000
    41  H          0.23050000       0.24050000       0.48840000
    42  H          0.76950000       0.74050000       0.01160000
    43  H          0.76950000       0.75950000       0.51160000
    44  H          0.23050000       0.25950000      -0.01160000
    45  N          0.19879700       0.80875700       0.55643170
    46  N          0.80120300       0.30875700       0.94356830
    47  N          0.80120300       0.19124300       0.44356830
    48  N          0.19879700       0.69124300       0.05643170
    49  C          0.18974800       0.72821800       0.55422000
    50  C          0.81025200       0.22821800       0.94578000
    51  C          0.81025200       0.27178200       0.44578000
    52  C          0.18974800       0.77178200       0.05422000
    53  H          0.14440000       0.70650000       0.58070000
    54  H          0.85560000       0.20650000       0.91930000
    55  H          0.85560000       0.29350000       0.41930000
    56  H          0.14440000       0.79350000       0.08070000
    57  C          0.24367700       0.67506800       0.51482180
    58  C          0.75632300       0.17506800      -0.01482180
    59  C          0.75632300       0.32493200       0.48517820
    60  C          0.24367700       0.82493200       0.01482180
    61  N          0.22599700       0.59096700       0.52163170
    62  N          0.77400300       0.09096700       0.97836830
    63  N          0.77400300       0.40903300       0.47836830
    64  N          0.22599700       0.90903300       0.02163170
    65  C          0.31036800       0.70602800       0.47632000
    66  C          0.68963200       0.20602800       0.02368000
    67  C          0.68963200       0.29397200       0.52368000
    68  C          0.31036800       0.79397200       0.97632000
    69  H          0.34850000       0.67080000       0.44980000
    70  H          0.65150000       0.17080000       0.05020000
    71  H          0.65150000       0.32920000       0.55020000
    72  H          0.34850000       0.82920000       0.94980000
    73  C          0.31946800       0.78923900       0.47762000
    74  C          0.68053200       0.28923900       0.02238000
    75  C          0.68053200       0.21076100       0.52238000
    76  C          0.31946800       0.71076100       0.97762000
    77  H          0.36400000       0.81260000       0.45050000
    78  H          0.63600000       0.31260000       0.04950000
    79  H          0.63600000       0.18740000       0.54950000
    80  H          0.36400000       0.68740000       0.95050000
    81  C          0.26286800       0.83857900       0.51902000
    82  C          0.73713200       0.33857900       0.98098000
    83  C          0.73713200       0.16142100       0.48098000
    84  C          0.26286800       0.66142100       0.01902000
    85  H          0.26990000       0.89580000       0.52080000
    86  H          0.73010000       0.39580000       0.97920000
    87  H          0.73010000       0.10420000       0.47920000
    88  H          0.26990000       0.60420000       0.02080000
    89  C          0.42327800       0.18258800       0.29307190
    90  C          0.57672200       0.68258800       0.20692810
    91  C          0.57672200       0.81741200       0.70692810
    92  C          0.42327800       0.31741200       0.79307190
    93  O          0.40806600       0.26162600       0.29728170
    94  O          0.59193400       0.76162600       0.20271830
    95  O          0.59193400       0.73837400       0.70271830
    96  O          0.40806600       0.23837400       0.79728170
    97  H          0.36641100       0.27381100       0.33630000
    98  H          0.63358900       0.77381100       0.16370000
    99  H          0.63358900       0.72618900       0.66370000
   100  H          0.36641100       0.22618900       0.83630000
   101  C          0.37931800       0.12073800       0.34512000
   102  C          0.62068200       0.62073800       0.15488000
   103  C          0.62068200       0.87926200       0.65488000
   104  C          0.37931800       0.37926200       0.84512000
   105  F          0.31726500       0.14030500       0.41067140
   106  F          0.68273500       0.64030500       0.08932860
   107  F          0.68273500       0.85969500       0.58932860
   108  F          0.31726500       0.35969500       0.91067140
   109  C          0.39780800       0.04000800       0.33332000
   110  C          0.60219200       0.54000800       0.16668000
   111  C          0.60219200       0.95999200       0.66668000
   112  C          0.39780800       0.45999200       0.83332000
   113  F          0.35257500       0.98375500       0.38514130
   114  F          0.64742500       0.48375500       0.11485870
   115  F          0.64742500       0.01624500       0.61485870
   116  F          0.35257500       0.51624500       0.88514130
   117  C          0.46230800       0.01653800       0.27270180
   118  C          0.53769200       0.51653800       0.22729820
   119  C          0.53769200       0.98346200       0.72729820
   120  C          0.46230800       0.48346200       0.77270180
   121  Br         0.48872790       0.90740920       0.25684519
   122  Br         0.51127210       0.40740920       0.24315481
   123  Br         0.51127210       0.09259080       0.74315481
   124  Br         0.48872790       0.59259080       0.75684519
   125  C          0.50769800       0.07742900       0.22634190
   126  C          0.49230200       0.57742900       0.27365810
   127  C          0.49230200       0.92257100       0.77365810
   128  C          0.50769800       0.42257100       0.72634190
   129  F          0.57247500       0.05899500       0.17431130
   130  F          0.42752500       0.55899500       0.32568870
   131  F          0.42752500       0.94100500       0.82568870
   132  F          0.57247500       0.44100500       0.67431130
   133  C          0.48812800       0.15833800       0.23412000
   134  C          0.51187200       0.65833800       0.26588000
   135  C          0.51187200       0.84166200       0.76588000
   136  C          0.48812800       0.34166200       0.73412000
   137  F          0.53358500       0.21526500       0.18432140
   138  F          0.46641500       0.71526500       0.31567860
   139  F          0.46641500       0.78473500       0.81567860
   140  F          0.53358500       0.28473500       0.68432140
   141  C          0.07159700       0.95252800       0.68450180
   142  C          0.92840300       0.45252800       0.81549820
   143  C          0.92840300       0.04747200       0.31549820
   144  C          0.07159700       0.54747200       0.18450180
   145  O          0.08600600       0.87391600       0.67382150
   146  O          0.91399400       0.37391600       0.82617850
   147  O          0.91399400       0.12608400       0.32617850
   148  O          0.08600600       0.62608400       0.17382150
   149  H          0.12711100       0.85931100       0.63420000
   150  H          0.87288900       0.35931100       0.86580000
   151  H          0.87288900       0.14068900       0.36580000
   152  H          0.12711100       0.64068900       0.13420000
   153  C          0.11284800       0.01521800       0.62546190
   154  C          0.88715200       0.51521800       0.87453810
   155  C          0.88715200       0.98478200       0.37453810
   156  C          0.11284800       0.48478200       0.12546190
   157  F          0.17296500      -0.00362500       0.55136140
   158  F          0.82703500       0.49637500       0.94863860
   159  F          0.82703500       0.00362500       0.44863860
   160  F          0.17296500       0.50362500       0.05136140
   161  C          0.09391800       0.09586800       0.63952000
   162  C          0.90608200       0.59586800       0.86048000
   163  C          0.90608200       0.90413200       0.36048000
   164  C          0.09391800       0.40413200       0.13952000
   165  F          0.13703500       0.15257500       0.58130140
   166  F          0.86296500       0.65257500       0.91869860
   167  F          0.86296500       0.84742500       0.41869860
   168  F          0.13703500       0.34742500       0.08130140
   169  C          0.03237800       0.11862800       0.71328180
   170  C          0.96762200       0.61862800       0.78671820
   171  C          0.96762200       0.88137200       0.28671820
   172  C          0.03237800       0.38137200       0.21328180
   173  Br         0.00611580       0.22693680       0.73802519
   174  Br        -0.00611580       0.72693680       0.76197481
   175  Br        -0.00611580       0.77306320       0.26197481
   176  Br         0.00611580       0.27306320       0.23802519
   177  C          0.99024300       0.05678800       0.77033190
   178  C          0.00975700       0.55678800       0.72966810
   179  C          0.00975700       0.94321200       0.22966810
   180  C          0.99024300       0.44321200       0.27033190
   181  F          0.92872500       0.07446500       0.83880140
   182  F          0.07127500       0.57446500       0.66119860
   183  F          0.07127500       0.92553500       0.16119860
   184  F          0.92872500       0.42553500       0.33880140
   185  C          0.00916800       0.97663800       0.75673180
   186  C          0.99083200       0.47663800       0.74326820
   187  C          0.99083200       0.02336200       0.24326820
   188  C          0.00916800       0.52336200       0.25673180
   189  F          0.96544500       0.91892500       0.81072140
   190  F          0.03455500       0.41892500       0.68927860
   191  F          0.03455500       0.08107500       0.18927860
   192  F          0.96544500       0.58107500       0.31072140
