data_PETTUF
_symmetry_space_group_name_H-M    'P1'
_symmetry_Int_Tables_number       1
loop_
_symmetry_equiv_pos_site_id
_symmetry_equiv_pos_as_xyz
1 x,y,z
_cell_length_a                   8.70012
_cell_length_b                   19.09743
_cell_length_c                   19.52773
_cell_angle_alpha                85.47201
_cell_angle_beta                 82.45101
_cell_angle_gamma                89.07701
loop_
_atom_site_label
_atom_site_type_symbol
_atom_site_fract_x
_atom_site_fract_y
_atom_site_fract_z
     1  I          0.26433500       0.79314200       0.09972219
     2  I          0.73566500       0.20685800       0.90027781
     3  C          0.25507000       0.80533000      -0.00603000
     4  C          0.74493000       0.19467000       0.00603000
     5  N          0.27936000       0.75462000       0.95088000
     6  N          0.72064000       0.24538000       0.04912000
     7  C          0.29938000       0.67873000       0.96997000
     8  C          0.70062000       0.32127000       0.03003000
     9  H          0.36190000       0.67290000       0.00900000
    10  H          0.63810000       0.32710000       0.99100000
    11  H          0.35710000       0.65660000       0.93020000
    12  H          0.64290000       0.34340000       0.06980000
    13  C          0.14669000       0.64164000       0.99085000
    14  C          0.85331000       0.35836000       0.00915000
    15  H          0.09550000       0.66250000       0.03350000
    16  H          0.90450000       0.33750000       0.96650000
    17  C          0.03901200       0.64675000       0.94223000
    18  C          0.96098800       0.35325000       0.05777000
    19  H          0.00680000       0.69580000       0.93460000
    20  H         -0.00680000       0.30420000       0.06540000
    21  H          0.94810000       0.61800000       0.96010000
    22  H          0.05190000       0.38200000       0.03990000
    23  H          0.08770000       0.63000000       0.89830000
    24  H          0.91230000       0.37000000       0.10170000
    25  C          0.18551200       0.56424000       0.01236000
    26  C          0.81448800       0.43576000       0.98764000
    27  H          0.09020000       0.53970000       0.03260000
    28  H          0.90980000       0.46030000       0.96740000
    29  H          0.25860000       0.56280000       0.04650000
    30  H          0.74140000       0.43720000       0.95350000
    31  H          0.23220000       0.54120000       0.97140000
    32  H          0.76780000       0.45880000       0.02860000
    33  C          0.27737000       0.78313000       0.88417000
    34  C          0.72263000       0.21687000       0.11583000
    35  H          0.29230000       0.75850000       0.84340000
    36  H          0.70770000       0.24150000       0.15660000
    37  C          0.25027000       0.85233000       0.88747000
    38  C          0.74973000       0.14767000       0.11253000
    39  H          0.24270000       0.88580000       0.84940000
    40  H          0.75730000       0.11420000       0.15060000
    41  N          0.23545000       0.86572000       0.95668000
    42  N          0.76455000       0.13428000       0.04332000
    43  C          0.20737000       0.93593000       0.98307000
    44  C          0.79263000       0.06407000       0.01693000
    45  H          0.14000000       0.93120000       0.02820000
    46  H          0.86000000       0.06880000       0.97180000
    47  H          0.15280000       0.96600000       0.95030000
    48  H          0.84720000       0.03400000       0.04970000
    49  C          0.35947000       0.97023000       0.99217000
    50  C          0.64053000       0.02977000       0.00783000
    51  C          0.45557000      -0.00057000       0.93487000
    52  C          0.54443000       0.00057000       0.06513000
    53  H          0.42410000      -0.00040000       0.89010000
    54  H          0.57590000       0.00040000       0.10990000
    55  C          0.40487000       0.97203000       0.05753000
    56  C          0.59513000       0.02797000       0.94247000
    57  H          0.33870000       0.95340000       0.09710000
    58  H          0.66130000       0.04660000       0.90290000
    59  I          0.56886500       0.23599200       0.59497200
    60  I          0.43113500       0.76400800       0.40502800
    61  C          0.47917000       0.26203000       0.50243000
    62  C          0.52083000       0.73797000       0.49757000
    63  N          0.36206000       0.22973000       0.47992000
    64  N          0.63794000       0.77027000       0.52008000
    65  C          0.26998000       0.16933000       0.51393000
    66  C          0.73002000       0.83067000       0.48607000
    67  H          0.32360000       0.14710000       0.55180000
    68  H          0.67640000       0.85290000       0.44820000
    69  H          0.26390000       0.13410000       0.47980000
    70  H          0.73610000       0.86590000       0.52020000
    71  C          0.10888000       0.18974000       0.54313000
    72  C          0.89112000       0.81026000       0.45687000
    73  H          0.05700000       0.21290000       0.50440000
    74  H          0.94300000       0.78710000       0.49560000
    75  C          0.10721000       0.24154000       0.59934000
    76  C          0.89279000       0.75846000       0.40066000
    77  H          0.16580000       0.28360000       0.58010000
    78  H          0.83420000       0.71640000       0.41990000
    79  H          0.15500000       0.21940000       0.63840000
    80  H          0.84500000       0.78060000       0.36160000
    81  H         -0.00010000       0.25480000       0.61520000
    82  H          0.00010000       0.74520000       0.38480000
    83  C          0.01961000       0.12314000       0.57024000
    84  C          0.98039000       0.87686000       0.42976000
    85  H          0.06910000       0.09900000       0.60780000
    86  H          0.93090000       0.90100000       0.39220000
    87  H          0.01970000       0.09200000       0.53260000
    88  H          0.98030000       0.90800000       0.46740000
    89  H          0.91250000       0.13530000       0.58760000
    90  H          0.08750000       0.86470000       0.41240000
    91  C          0.33178000       0.26563000       0.41893000
    92  C          0.66822000       0.73437000       0.58107000
    93  H          0.25320000       0.25460000       0.39200000
    94  H          0.74680000       0.74540000       0.60800000
    95  C          0.43148000       0.31793000       0.40443000
    96  C          0.56852000       0.68207000       0.59557000
    97  H          0.43840000       0.35080000       0.36510000
    98  H          0.56160000       0.64920000       0.63490000
    99  N          0.52396000       0.31553000       0.45742000
   100  N          0.47604000       0.68447000       0.54258000
   101  C          0.64487000       0.36733000       0.46264000
   102  C          0.35513000       0.63267000       0.53736000
   103  H          0.71180000       0.37440000       0.41760000
   104  H          0.28820000       0.62560000       0.58240000
   105  H          0.71040000       0.34930000       0.49800000
   106  H          0.28960000       0.65070000       0.50200000
   107  C          0.57107000       0.43693000       0.48243000
   108  C          0.42893000       0.56307000       0.51757000
   109  C          0.55469000       0.49083000       0.43183000
   110  C          0.44531000       0.50917000       0.56817000
   111  H          0.59250000       0.48490000       0.38470000
   112  H          0.40750000       0.51510000       0.61530000
   113  C          0.51698000       0.44693000       0.55023000
   114  C          0.48302000       0.55307000       0.44977000
   115  H          0.52880000       0.41040000       0.58520000
   116  H          0.47120000       0.58960000       0.41480000
   117  I          0.14524500       0.63946200       0.26004200
   118  I          0.85475500       0.36053800       0.73995800
   119  C          0.02477000       0.54543000       0.26703000
   120  C          0.97523000       0.45457000       0.73297000
   121  N          0.91274000       0.52983000       0.22972000
   122  N          0.08726000       0.47017000       0.77028000
   123  C          0.84892000       0.57604000       0.17613000
   124  C          0.15108000       0.42396000       0.82387000
   125  H          0.84470000       0.54970000       0.13470000
   126  H          0.15530000       0.45030000       0.86530000
   127  H          0.91920000       0.61640000       0.16230000
   128  H          0.08080000       0.38360000       0.83770000
   129  C          0.68751000       0.60324000       0.20074000
   130  C          0.31249000       0.39676000       0.79926000
   131  H          0.61720000       0.56180000       0.21210000
   132  H          0.38280000       0.43820000       0.78790000
   133  C          0.68088900       0.64305000       0.26394000
   134  C          0.31911100       0.35695000       0.73606000
   135  H          0.74940000       0.68380000       0.25400000
   136  H          0.25060000       0.31620000       0.74600000
   137  H          0.71460000       0.61240000       0.30190000
   138  H          0.28540000       0.38760000       0.69810000
   139  H          0.57420000       0.65890000       0.27730000
   140  H          0.42580000       0.34110000       0.72270000
   141  C          0.63068900       0.64855000       0.14045000
   142  C          0.36931100       0.35145000       0.85955000
   143  H          0.52530000       0.66540000       0.15460000
   144  H          0.47470000       0.33460000       0.84540000
   145  H          0.63070000       0.62030000       0.10060000
   146  H          0.36930000       0.37970000       0.89940000
   147  H          0.69990000       0.68870000       0.12740000
   148  H          0.30010000       0.31130000       0.87260000
   149  C          0.86342000       0.46183000       0.24973000
   150  C          0.13658000       0.53817000       0.75027000
   151  H          0.78470000       0.43770000       0.23180000
   152  H          0.21530000       0.56230000       0.76820000
   153  C          0.94712000       0.43623000       0.29923000
   154  C          0.05288000       0.56377000       0.70077000
   155  H          0.93900000       0.39060000       0.32260000
   156  H          0.06100000       0.60940000       0.67740000
   157  N          0.04706000       0.48823000       0.30972000
   158  N          0.95294000       0.51177000       0.69028000
   159  C          0.15588000       0.48063000       0.36133000
   160  C          0.84412000       0.51937000       0.63867000
   161  H          0.23970000       0.51550000       0.34890000
   162  H          0.76030000       0.48450000       0.65110000
   163  H          0.20340000       0.43310000       0.36070000
   164  H          0.79660000       0.56690000       0.63930000
   165  C          0.07527000       0.49093000       0.43363000
   166  C          0.92473000       0.50907000       0.56637000
   167  C          0.03099000       0.55684000       0.45343000
   168  C          0.96901000       0.44316000       0.54657000
   169  H          0.05290000       0.59660000       0.42140000
   170  H          0.94710000       0.40340000       0.57860000
   171  C          0.04509000       0.43404000       0.48093000
   172  C          0.95491000       0.56596000       0.51907000
   173  H          0.07620000       0.38830000       0.46850000
   174  H          0.92380000       0.61170000       0.53150000
   175  I          0.36280500       0.94823800       0.25884200
   176  I          0.63719500       0.05176200       0.74115800
   177  C          0.41037000       0.05173000       0.27273000
   178  C          0.58963000       0.94827000       0.72727000
   179  N          0.34156000       0.10943000       0.24683000
   180  N          0.65844000       0.89057000       0.75317000
   181  C          0.22297000       0.11243000       0.19853000
   182  C          0.77703000       0.88757000       0.80147000
   183  H          0.13660000       0.14320000       0.21620000
   184  H          0.86340000       0.85680000       0.78380000
   185  H          0.18060000       0.06470000       0.19760000
   186  H          0.81940000       0.93530000       0.80240000
   187  C          0.28597000       0.13963000       0.12493000
   188  C          0.71403000       0.86037000       0.87507000
   189  H          0.38350000       0.11340000       0.11000000
   190  H          0.61650000       0.88660000       0.89000000
   191  C          0.16638000       0.12504000       0.07734000
   192  C          0.83362000       0.87496000       0.92266000
   193  H          0.14320000       0.07460000       0.08160000
   194  H          0.85680000       0.92540000       0.91840000
   195  H          0.20770000       0.13940000       0.02920000
   196  H          0.79230000       0.86060000       0.97080000
   197  H          0.07110000       0.15150000       0.09050000
   198  H          0.92890000       0.84850000       0.90950000
   199  C          0.32099000       0.21824000       0.11764000
   200  C          0.67901000       0.78176000       0.88236000
   201  H          0.35490000       0.23300000       0.06880000
   202  H          0.64510000       0.76700000       0.93120000
   203  H          0.40310000       0.22770000       0.14540000
   204  H          0.59690000       0.77230000       0.85460000
   205  H          0.22710000       0.24440000       0.13380000
   206  H          0.77290000       0.75560000       0.86620000
   207  C          0.39567000       0.16673000       0.27523000
   208  C          0.60433000       0.83327000       0.72477000
   209  H          0.36510000       0.21420000       0.26660000
   210  H          0.63490000       0.78580000       0.73340000
   211  C          0.49867000       0.14353000       0.31703000
   212  C          0.50133000       0.85647000       0.68297000
   213  H          0.55510000       0.17130000       0.34310000
   214  H          0.44490000       0.82870000       0.65690000
   215  N          0.50736000       0.07123000       0.31502000
   216  N          0.49264000       0.92877000       0.68498000
   217  C          0.61087000       0.02593000       0.35333000
   218  C          0.38913000       0.97407000       0.64667000
   219  H          0.71450000       0.04780000       0.34810000
   220  H          0.28550000       0.95220000       0.65190000
   221  H          0.62270000       0.98000000       0.33290000
   222  H          0.37730000       0.02000000       0.66710000
   223  C          0.55077000       0.01403000       0.42973000
   224  C          0.44923000       0.98597000       0.57027000
   225  C          0.40327000       0.98827000       0.45163000
   226  C          0.59673000       0.01173000       0.54837000
   227  H          0.33600000       0.98040000       0.41840000
   228  H          0.66400000       0.01960000       0.58160000
   229  C          0.64737000       0.02583000       0.47863000
   230  C          0.35263000       0.97417000       0.52137000
   231  H          0.74860000       0.04360000       0.46400000
   232  H          0.25140000       0.95640000       0.53600000
   233  Br         0.31181800       0.78086300       0.25725300
   234  Br         0.68818200       0.21913700       0.74274700
   235  S          0.08638180       0.77631800       0.62536800
   236  S          0.91361820       0.22368200       0.37463200
   237  O          0.22965000       0.80652000       0.59292000
   238  O          0.77035000       0.19348000       0.40708000
   239  O          0.95445000       0.82282000       0.63082000
   240  O          0.04555000       0.17718000       0.36918000
   241  O          0.05335000       0.70767190       0.60552000
   242  O          0.94665000       0.29232810       0.39448000
   243  C          0.11915000       0.75952000       0.71493000
   244  C          0.88085000       0.24048000       0.28507000
   245  F          0.23875000       0.71642000       0.72052000
   246  F          0.76125000       0.28358000       0.27948000
   247  F         -0.00365000       0.73062000       0.75423190
   248  F          0.00365000       0.26938000       0.24576810
   249  F          0.14924000       0.81892000       0.74253180
   250  F          0.85076000       0.18108000       0.25746820
   251  S          0.45302000       0.39385900       0.21658900
   252  S          0.54698000       0.60614100       0.78341100
   253  O          0.46466000       0.44473000       0.26462000
   254  O          0.53534000       0.55527000       0.73538000
   255  O          0.33348000       0.34163000       0.24703000
   256  O          0.66652000       0.65837000       0.75297000
   257  O          0.58748000       0.36645000       0.18453000
   258  O          0.41252000       0.63355000       0.81547000
   259  C          0.35988000       0.43754000       0.14813000
   260  C          0.64012000       0.56246000       0.85187000
   261  F          0.45328000       0.49023000       0.11743000
   262  F          0.54672000       0.50977000       0.88257000
   263  F          0.34435000       0.39782000       0.09732000
   264  F          0.65565000       0.60218000       0.90268000
   265  F          0.22937000       0.46663000       0.16713000
   266  F          0.77063000       0.53337000       0.83287000
   267  S          0.10821180       0.04200900       0.79868800
   268  S          0.89178820       0.95799100       0.20131200
   269  O         -0.00166000       0.03763000       0.85983000
   270  O          0.00166000       0.96237000       0.14017000
   271  O          0.24295000      -0.00232000       0.80302000
   272  O          0.75705000       0.00232000       0.19698000
   273  O          0.04476000       0.03943000       0.73493000
   274  O          0.95524000       0.96057000       0.26507000
   275  C          0.18558000       0.12983000       0.79384000
   276  C          0.81442000       0.87017000       0.20616000
   277  F          0.25678000       0.13933000       0.84773000
   278  F          0.74322000       0.86067000       0.15227000
   279  F          0.07556000       0.17852000       0.79143000
   280  F          0.92444000       0.82148000       0.20857000
   281  F          0.28785000       0.14172000       0.73733000
   282  F          0.71215000       0.85828000       0.26267000
   283  O          0.91931000       0.96614000       0.62544000
   284  O          0.08069000       0.03386000       0.37456000
   285  H          0.93000000       0.92230000       0.62670000
   286  H          0.07000000       0.07770000       0.37330000
   287  H          0.95470000       0.98610000       0.65640000
   288  H          0.04530000       0.01390000       0.34360000
