data_PEVXIY
_symmetry_space_group_name_H-M    'P1'
_symmetry_Int_Tables_number       1
loop_
_symmetry_equiv_pos_site_id
_symmetry_equiv_pos_as_xyz
1 x,y,z
_cell_length_a                   8.340013
_cell_length_b                   8.374713
_cell_length_c                   13.8502
_cell_angle_alpha                90.0
_cell_angle_beta                 92.0243
_cell_angle_gamma                90.0
loop_
_atom_site_label
_atom_site_type_symbol
_atom_site_fract_x
_atom_site_fract_y
_atom_site_fract_z
     1  O          0.05420150       0.18866140       0.69521900
     2  O          0.44579850       0.68866140       0.80478100
     3  O          0.94579850       0.81133860       0.30478100
     4  O          0.55420150       0.31133860       0.19521900
     5  O          0.05104160       0.24778140       0.60694900
     6  O          0.44895840       0.74778140       0.89305100
     7  O          0.94895840       0.75221860       0.39305100
     8  O          0.55104160       0.25221860       0.10694900
     9  N          0.00722150       0.74003140       0.75313900
    10  N          0.49277850       0.24003140       0.74686100
    11  N         -0.00722150       0.25996860       0.24686100
    12  N          0.50722150       0.75996860       0.25313900
    13  C          0.08452000       0.78592000       0.66164140
    14  C          0.41548000       0.28592000       0.83835860
    15  C          0.91548000       0.21408000       0.33835860
    16  C          0.58452000       0.71408000       0.16164140
    17  C          0.06823000       0.84752000       0.83174140
    18  C          0.43177000       0.34752000       0.66825860
    19  C          0.93177000       0.15248000       0.16825860
    20  C          0.56823000       0.65248000       0.33174140
    21  C          0.04863000       0.57162000       0.77840170
    22  C          0.45137000       0.07162000       0.72159830
    23  C          0.95137000       0.42838000       0.22159830
    24  C          0.54863000       0.92838000       0.27840170
    25  C          0.83008000       0.75552000       0.74002150
    26  C          0.66992000       0.25552000       0.75997850
    27  C          0.16992000       0.24448000       0.25997850
    28  C          0.33008000       0.74448000       0.24002150
    29  H          0.20230000       0.76721800       0.67161300
    30  H          0.29770000       0.26721800       0.82838700
    31  H          0.79770000       0.23278200       0.32838700
    32  H          0.70230000       0.73278200       0.17161300
    33  H          0.05861900       0.90120000       0.65161300
    34  H          0.44138100       0.40120000       0.84838700
    35  H          0.94138100       0.09880000       0.34838700
    36  H          0.55861900       0.59880000       0.15161300
    37  H          0.04220000       0.72420000       0.61241500
    38  H          0.45780000       0.22420000       0.88758500
    39  H          0.95780000       0.27580000       0.38758500
    40  H          0.54220000       0.77580000       0.11241500
    41  H          0.04020000       0.95720000       0.80971300
    42  H          0.45980000       0.45720000       0.69028700
    43  H          0.95980000       0.04280000       0.19028700
    44  H          0.54020000       0.54280000       0.30971300
    45  H          0.18120000       0.83031900       0.83881200
    46  H          0.31880000       0.33031900       0.66118800
    47  H          0.81880000       0.16968100       0.16118800
    48  H          0.68120000       0.66968100       0.33881200
    49  H          0.01420000       0.81620000       0.88781400
    50  H          0.48580000       0.31620000       0.61218600
    51  H         -0.01420000       0.18380000       0.11218600
    52  H          0.51420000       0.68380000       0.38781400
    53  H         -0.00720000       0.54720000       0.83731400
    54  H          0.50720000       0.04720000       0.66268600
    55  H          0.00720000       0.45280000       0.16268600
    56  H          0.49280000       0.95280000       0.33731400
    57  H          0.16530000       0.57120000       0.78881400
    58  H          0.33470000       0.07120000       0.71118600
    59  H          0.83470000       0.42880000       0.21118600
    60  H          0.66530000       0.92880000       0.28881400
    61  H          0.01720000       0.50720000       0.72481500
    62  H          0.48280000       0.00720000       0.77518500
    63  H         -0.01720000       0.49280000       0.27518500
    64  H          0.51720000      -0.00720000       0.22481500
    65  H          0.81280000       0.86420000       0.72131200
    66  H          0.68720000       0.36420000       0.77868800
    67  H          0.18720000       0.13580000       0.27868800
    68  H          0.31280000       0.63580000       0.22131200
    69  H          0.79680000       0.68420000       0.68921400
    70  H          0.70320000       0.18420000       0.81078600
    71  H          0.20320000       0.31580000       0.31078600
    72  H          0.29680000       0.81580000       0.18921400
    73  H          0.78580000       0.73041800       0.80091500
    74  H          0.71420000       0.23041800       0.69908500
    75  H          0.21420000       0.26958200       0.19908500
    76  H          0.28580000       0.76958200       0.30091500
    77  N          0.21892000       0.51802000       0.47039120
    78  N          0.28108000       0.01802000       0.02960880
    79  N          0.78108000       0.48198000       0.52960880
    80  N          0.71892000       0.98198000       0.97039120
    81  H          0.17520000       0.45120000       0.51251300
    82  H          0.32480000       0.95120000       0.98748700
    83  H          0.82480000       0.54880000       0.48748700
    84  H          0.67520000       0.04880000       0.01251300
    85  H          0.28420000       0.58420000       0.50471400
    86  H          0.21580000       0.08420000      -0.00471400
    87  H          0.71580000       0.41580000       0.49528600
    88  H          0.78420000       0.91580000       0.00471400
    89  H          0.14620000       0.58120000       0.44771400
    90  H          0.35380000       0.08120000       0.05228600
    91  H          0.85380000       0.41880000       0.55228600
    92  H          0.64620000       0.91880000       0.94771400
    93  N          0.26262000       0.47882000       0.03361120
    94  N          0.23738000       0.97882000       0.46638880
    95  N          0.73738000       0.52118000       0.96638880
    96  N          0.76262000       0.02118000       0.53361120
    97  H          0.34220000       0.42630000       0.05891500
    98  H          0.15780000       0.92630000       0.44108500
    99  H          0.65780000       0.57370000       0.94108500
   100  H          0.84220000       0.07370000       0.55891500
   101  H          0.30620000       0.55120000      -0.00741400
   102  H          0.19380000       0.05120000       0.50741400
   103  H          0.69380000       0.44880000       0.00741400
   104  H          0.80620000       0.94880000       0.49258600
   105  H          0.20520000       0.41420000      -0.00341400
   106  H          0.29480000       0.91420000       0.50341400
   107  H          0.79480000       0.58580000       0.00341400
   108  H          0.70520000       0.08580000       0.49658600
   109  N          0.00504180       0.76246190       0.08235120
   110  N          0.49495820       0.26246190       0.41764880
   111  N         -0.00504180       0.23753810       0.91764880
   112  N          0.50504180       0.73753810       0.58235120
   113  H          0.06820000       0.84520000       0.07341300
   114  H          0.43180000       0.34520000       0.42658700
   115  H          0.93180000       0.15480000       0.92658700
   116  H          0.56820000       0.65480000       0.57341300
   117  H          0.06420000       0.67620000       0.07161400
   118  H          0.43580000       0.17620000       0.42838600
   119  H          0.93580000       0.32380000       0.92838600
   120  H          0.56420000       0.82380000       0.57161400
   121  H         -0.01420000       0.76301900       0.14881600
   122  H          0.51420000       0.26301900       0.35118400
   123  H          0.01420000       0.23698100       0.85118400
   124  H          0.48580000       0.73698100       0.64881600
