data_PEVXEV
_symmetry_space_group_name_H-M    'P1'
_symmetry_Int_Tables_number       1
loop_
_symmetry_equiv_pos_site_id
_symmetry_equiv_pos_as_xyz
1 x,y,z
_cell_length_a                   10.16413
_cell_length_b                   13.89004
_cell_length_c                   19.39946
_cell_angle_alpha                90.0
_cell_angle_beta                 97.604016
_cell_angle_gamma                90.0
loop_
_atom_site_label
_atom_site_type_symbol
_atom_site_fract_x
_atom_site_fract_y
_atom_site_fract_z
     1  I          0.46821300       0.12654200       0.08983516
     2  I          0.03178700       0.62654200       0.41016484
     3  I          0.53178700       0.87345800       0.91016484
     4  I          0.96821300       0.37345800       0.58983516
     5  O          0.75993000       0.09682000       0.17622140
     6  O          0.74007000       0.59682000       0.32377860
     7  O          0.24007000       0.90318000       0.82377860
     8  O          0.25993000       0.40318000       0.67622140
     9  N          0.69213000       0.87948000       0.06693170
    10  N          0.80787000       0.37948000       0.43306830
    11  N          0.30787000       0.12052000       0.93306830
    12  N          0.19213000       0.62052000       0.56693170
    13  N          0.87233000       0.96118000       0.13195170
    14  N          0.62767000       0.46118000       0.36804830
    15  N          0.12767000       0.03882000       0.86804830
    16  N          0.37233000       0.53882000       0.63195170
    17  N          0.08034000       0.96648000       0.20476180
    18  N          0.41966000       0.46648000       0.29523820
    19  N          0.91966000       0.03352000       0.79523820
    20  N          0.58034000       0.53352000       0.70476180
    21  N          0.87683000       0.97028000       0.25327170
    22  N          0.62317000       0.47028000       0.24672830
    23  N          0.12317000       0.02972000       0.74672830
    24  N          0.37683000       0.52972000       0.75327170
    25  N          0.70304000       0.89767000       0.30590170
    26  N          0.79696000       0.39767000       0.19409830
    27  N          0.29696000       0.10233000       0.69409830
    28  N          0.20304000       0.60233000       0.80590170
    29  N          0.67893000       0.92828000       0.18359170
    30  N          0.82107000       0.42828000       0.31640830
    31  N          0.32107000       0.07172000       0.81640830
    32  N          0.17893000       0.57172000       0.68359170
    33  C          0.81594000       0.91327000       0.07322000
    34  C          0.68406000       0.41327000       0.42678000
    35  C          0.18406000       0.08673000       0.92678000
    36  C          0.31594000       0.58673000       0.57322000
    37  C          0.92644000       0.89067000       0.03532000
    38  C          0.57356000       0.39067000       0.46468000
    39  C          0.07356000       0.10933000       0.96468000
    40  C          0.42644000       0.60933000       0.53532000
    41  C          0.93265000       0.84637000       0.97128000
    42  C          0.56735000       0.34637000       0.52872000
    43  C          0.06735000       0.15363000       0.02872000
    44  C          0.43265000       0.65363000       0.47128000
    45  H          0.85410000       0.82550000       0.94310000
    46  H          0.64590000       0.32550000       0.55690000
    47  H          0.14590000       0.17450000       0.05690000
    48  H          0.35410000       0.67450000       0.44310000
    49  C          0.05605000       0.83367000       0.94978000
    50  C          0.44395000       0.33367000       0.55022000
    51  C          0.94395000       0.16633000       0.05022000
    52  C          0.55605000       0.66633000       0.44978000
    53  H          0.06140000       0.80550000       0.90570000
    54  H          0.43860000       0.30550000       0.59430000
    55  H          0.93860000       0.19450000       0.09430000
    56  H          0.56140000       0.69450000       0.40570000
    57  C          0.17235000       0.86107000       0.99118000
    58  C          0.32765000       0.36107000       0.50882000
    59  C          0.82765000       0.13893000       0.00882000
    60  C          0.67235000       0.63893000       0.49118000
    61  H          0.25520000       0.85170000       0.97460000
    62  H          0.24480000       0.35170000       0.52540000
    63  H          0.74480000       0.14830000       0.02540000
    64  H          0.75520000       0.64830000       0.47460000
    65  C          0.16955000       0.90177000       0.05602000
    66  C          0.33045000       0.40177000       0.44398000
    67  C          0.83045000       0.09823000       0.94398000
    68  C          0.66955000       0.59823000       0.55602000
    69  H          0.24920000       0.91760000       0.08510000
    70  H          0.25080000       0.41760000       0.41490000
    71  H          0.75080000       0.08240000       0.91490000
    72  H          0.74920000       0.58240000       0.58510000
    73  C          0.04494000       0.91887000       0.07752000
    74  C          0.45506000       0.41887000       0.42248000
    75  C          0.95506000       0.08113000       0.92248000
    76  C          0.54494000       0.58113000       0.57752000
    77  C          0.00744000       0.95717000       0.14172000
    78  C          0.49256000       0.45717000       0.35828000
    79  C         -0.00744000       0.04283000       0.85828000
    80  C          0.50744000       0.54283000       0.64172000
    81  C          0.01294000       0.96697000       0.25972000
    82  C          0.48706000       0.46697000       0.24028000
    83  C         -0.01294000       0.03303000       0.74028000
    84  C          0.51294000       0.53303000       0.75972000
    85  C          0.05674000       0.94287000       0.33252000
    86  C          0.44326000       0.44287000       0.16748000
    87  C          0.94326000       0.05713000       0.66748000
    88  C          0.55674000       0.55713000       0.83252000
    89  C          0.18215000       0.93217000       0.36932000
    90  C          0.31785000       0.43217000       0.13068000
    91  C          0.81785000       0.06783000       0.63068000
    92  C          0.68215000       0.56783000       0.86932000
    93  H          0.25950000       0.94190000       0.34750000
    94  H          0.24050000       0.44190000       0.15250000
    95  H          0.74050000       0.05810000       0.65250000
    96  H          0.75950000       0.55810000       0.84750000
    97  C          0.19135000       0.90686000       0.43873000
    98  C          0.30865000       0.40686000       0.06127000
    99  C          0.80865000       0.09314000       0.56127000
   100  C          0.69135000       0.59314000       0.93873000
   101  H          0.27620000       0.90110000       0.46550000
   102  H          0.22380000       0.40110000       0.03450000
   103  H          0.72380000       0.09890000       0.53450000
   104  H          0.77620000       0.59890000       0.96550000
   105  C          0.07745000       0.88976000       0.46992000
   106  C          0.42255000       0.38976000       0.03008000
   107  C          0.92255000       0.11024000       0.53008000
   108  C          0.57745000       0.61024000       0.96992000
   109  H          0.08710000       0.87320000       0.51780000
   110  H          0.41290000       0.37320000       0.98220000
   111  H          0.91290000       0.12680000       0.48220000
   112  H          0.58710000       0.62680000       0.01780000
   113  C          0.95125000       0.89607000       0.43372000
   114  C          0.54875000       0.39607000       0.06628000
   115  C          0.04875000       0.10393000       0.56628000
   116  C          0.45125000       0.60393000       0.93372000
   117  H          0.87470000       0.88220000       0.45520000
   118  H          0.62530000       0.38220000       0.04480000
   119  H          0.12530000       0.11780000       0.54480000
   120  H          0.37470000       0.61780000       0.95520000
   121  C          0.94104000       0.92357000       0.36392000
   122  C          0.55896000       0.42357000       0.13608000
   123  C          0.05896000       0.07643000       0.63608000
   124  C          0.44104000       0.57643000       0.86392000
   125  C          0.82654000       0.93327000       0.30992000
   126  C          0.67346000       0.43327000       0.19008000
   127  C          0.17346000       0.06673000       0.69008000
   128  C          0.32654000       0.56673000       0.80992000
   129  C          0.63484000       0.88977000       0.24182000
   130  C          0.86516000       0.38977000       0.25818000
   131  C          0.36516000       0.11023000       0.75818000
   132  C          0.13484000       0.61023000       0.74182000
   133  C          0.52814000       0.82437000       0.21592000
   134  C          0.97186000       0.32437000       0.28408000
   135  C          0.47186000       0.17563000       0.78408000
   136  C          0.02814000       0.67563000       0.71592000
   137  C          0.44845000       0.76367000       0.24972000
   138  C          0.05155000       0.26367000       0.25028000
   139  C          0.55155000       0.23633000       0.75028000
   140  C          0.94845000       0.73633000       0.74972000
   141  H          0.45000000       0.76660000       0.29870000
   142  H          0.05000000       0.26660000       0.20130000
   143  H          0.55000000       0.23340000       0.70130000
   144  H          0.95000000       0.73340000       0.79870000
   145  C          0.36665000       0.69887000       0.21013000
   146  C          0.13335000       0.19887000       0.28987000
   147  C          0.63335000       0.30113000       0.78987000
   148  C          0.86665000       0.80113000       0.71013000
   149  H          0.31190000       0.65690000       0.23260000
   150  H          0.18810000       0.15690000       0.26740000
   151  H          0.68810000       0.34310000       0.76740000
   152  H          0.81190000       0.84310000       0.73260000
   153  C          0.36284000       0.69377000       0.13823000
   154  C          0.13716000       0.19377000       0.36177000
   155  C          0.63716000       0.30623000       0.86177000
   156  C          0.86284000       0.80623000       0.63823000
   157  H          0.30540000       0.64880000       0.11250000
   158  H          0.19460000       0.14880000       0.38750000
   159  H          0.69460000       0.35120000       0.88750000
   160  H          0.80540000       0.85120000       0.61250000
   161  C          0.44184000       0.75367000       0.10342000
   162  C          0.05816000       0.25367000       0.39658000
   163  C          0.55816000       0.24633000       0.89658000
   164  C          0.94184000       0.74633000       0.60342000
   165  H          0.43900000       0.74990000       0.05440000
   166  H          0.06100000       0.24990000       0.44560000
   167  H          0.56100000       0.25010000       0.94560000
   168  H          0.93900000       0.75010000       0.55440000
   169  C          0.52494000       0.81927000       0.14202000
   170  C          0.97506000       0.31927000       0.35798000
   171  C          0.47506000       0.18073000       0.85798000
   172  C          0.02494000       0.68073000       0.64202000
   173  C          0.62894000       0.88097000       0.12392000
   174  C          0.87106000       0.38097000       0.37608000
   175  C          0.37106000       0.11903000       0.87608000
   176  C          0.12894000       0.61903000       0.62392000
   177  C          0.67804000       0.13803000       0.21792000
   178  C          0.82196000       0.63803000       0.28208000
   179  C          0.32196000       0.86197000       0.78208000
   180  C          0.17804000       0.36197000       0.71792000
   181  C          0.54624000       0.16063000       0.19202000
   182  C          0.95376000       0.66063000       0.30798000
   183  C          0.45376000       0.83937000       0.80798000
   184  C          0.04624000       0.33937000       0.69202000
   185  C          0.46435000       0.20573000       0.23453000
   186  C          0.03565000       0.70573000       0.26547000
   187  C          0.53565000       0.79427000       0.76547000
   188  C          0.96435000       0.29427000       0.73453000
   189  H          0.37560000       0.22190000       0.21620000
   190  H          0.12440000       0.72190000       0.28380000
   191  H          0.62440000       0.77810000       0.78380000
   192  H          0.87560000       0.27810000       0.71620000
   193  C          0.51115000       0.22713000       0.30283000
   194  C         -0.01115000       0.72713000       0.19717000
   195  C          0.48885000       0.77287000       0.69717000
   196  C          0.01115000       0.27287000       0.80283000
   197  H          0.45460000       0.25680000       0.33180000
   198  H          0.04540000       0.75680000       0.16820000
   199  H          0.54540000       0.74320000       0.66820000
   200  H          0.95460000       0.24320000       0.83180000
   201  C          0.64005000       0.20513000       0.32852000
   202  C          0.85995000       0.70513000       0.17148000
   203  C          0.35995000       0.79487000       0.67148000
   204  C          0.14005000       0.29487000       0.82852000
   205  H          0.67220000       0.21990000       0.37550000
   206  H          0.82780000       0.71990000       0.12450000
   207  H          0.32780000       0.78010000       0.62450000
   208  H          0.17220000       0.28010000       0.87550000
   209  C          0.72455000       0.16143000       0.28692000
   210  C          0.77545000       0.66143000       0.21308000
   211  C          0.27545000       0.83857000       0.71308000
   212  C          0.22455000       0.33857000       0.78692000
   213  H          0.81370000       0.14760000       0.30540000
   214  H          0.68630000       0.64760000       0.19460000
   215  H          0.18630000       0.85240000       0.69460000
   216  H          0.31370000       0.35240000       0.80540000
   217  B          0.79355000      -0.00353000       0.18652000
   218  B          0.70645000       0.49647000       0.31348000
   219  B          0.20645000       0.00353000       0.81348000
   220  B          0.29355000       0.50353000       0.68652000
   221  C          0.55765000       0.93066000       0.46263000
   222  C          0.94235000       0.43066000       0.03737000
   223  C          0.44235000       0.06934000       0.53737000
   224  C          0.05765000       0.56934000       0.96263000
   225  H          0.59840000       0.88340000       0.43700000
   226  H          0.90160000       0.38340000       0.06300000
   227  H          0.40160000       0.11660000       0.56300000
   228  H          0.09840000       0.61660000       0.93700000
   229  C          0.52015000       0.01794000       0.43212000
   230  C          0.97985000       0.51794000       0.06788000
   231  C          0.47985000       0.98206000       0.56788000
   232  C          0.02015000       0.48206000       0.93212000
   233  H          0.53270000       0.02980000       0.38520000
   234  H          0.96730000       0.52980000       0.11480000
   235  H          0.46730000       0.97020000       0.61480000
   236  H          0.03270000       0.47020000       0.88520000
   237  C          0.46405000       0.08814000       0.46962000
   238  C          0.03595000       0.58814000       0.03038000
   239  C          0.53595000       0.91186000       0.53038000
   240  C          0.96405000       0.41186000       0.96962000
   241  H          0.44050000       0.14880000       0.44900000
   242  H          0.05950000       0.64880000       0.05100000
   243  H          0.55950000       0.85120000       0.55100000
   244  H          0.94050000       0.35120000       0.94900000
