data_PEWHIJ
_symmetry_space_group_name_H-M    'P1'
_symmetry_Int_Tables_number       1
loop_
_symmetry_equiv_pos_site_id
_symmetry_equiv_pos_as_xyz
1 x,y,z
_cell_length_a                   13.7803
_cell_length_b                   14.8844
_cell_length_c                   13.5583
_cell_angle_alpha                111.755
_cell_angle_beta                 101.655
_cell_angle_gamma                91.295
loop_
_atom_site_label
_atom_site_type_symbol
_atom_site_fract_x
_atom_site_fract_y
_atom_site_fract_z
     1  N          0.33218130       0.86865870       0.47600150
     2  N          0.66781870       0.13134130       0.52399850
     3  C          0.32330170       0.78459840       0.48858190
     4  C          0.67669830       0.21540160       0.51141810
     5  C          0.37015190       0.70389820       0.43402000
     6  C          0.62984810       0.29610180       0.56598000
     7  H          0.36390000       0.64550000       0.44640000
     8  H          0.63610000       0.35450000       0.55360000
     9  C          0.42454190       0.71053820       0.36322000
    10  C          0.57545810       0.28946180       0.63678000
    11  H          0.45560000       0.65610000       0.32490000
    12  H          0.54440000       0.34390000       0.67510000
    13  C          0.43484170       0.79763830       0.34671190
    14  C          0.56515830       0.20236170       0.65328810
    15  C          0.49053180       0.80733810       0.27292000
    16  C          0.50946820       0.19266190       0.72708000
    17  H          0.52100000       0.75350000       0.23240000
    18  H          0.47900000       0.24650000       0.76760000
    19  C          0.50031180       0.89208000       0.26022000
    20  C          0.49968820       0.10792000       0.73978000
    21  H          0.53800000       0.89740000       0.21070000
    22  H          0.46200000       0.10260000       0.78930000
    23  C          0.45527160       0.97423830       0.31941180
    24  C          0.54472840       0.02576170       0.68058820
    25  C          0.46518170       0.06345180       0.30772000
    26  C          0.53481830       0.93654820       0.69228000
    27  H          0.50370000       0.07080000       0.25980000
    28  H          0.49630000       0.92920000       0.74020000
    29  C          0.41963170       0.13953180       0.36480190
    30  C          0.58036830       0.86046820       0.63519810
    31  H          0.42680000       0.20050000       0.35800000
    32  H          0.57320000       0.79950000       0.64200000
    33  C          0.36171160       0.12676160       0.43410180
    34  C          0.63828840       0.87323840       0.56589820
    35  N          0.35182130       0.04361130       0.44849140
    36  N          0.64817870       0.95638870       0.55150860
    37  C          0.39824160       0.96786840       0.39234180
    38  C          0.60175840       0.03213160       0.60765820
    39  C          0.38762160       0.87625840       0.40665180
    40  C          0.61237840       0.12374160       0.59334820
    41  C          0.30920160       0.20801160       0.49455180
    42  C          0.69079840       0.79198840       0.50544820
    43  C          0.28285190       0.28119170       0.45642000
    44  C          0.71714810       0.71880830       0.54358000
    45  H          0.29850000       0.27860000       0.39030000
    46  H          0.70150000       0.72140000       0.60970000
    47  C          0.23472000       0.35695180       0.51232000
    48  C          0.76528000       0.64304820       0.48768000
    49  H          0.21660000       0.40540000       0.48410000
    50  H          0.78340000       0.59460000       0.51590000
    51  C          0.21257180       0.36294160       0.60962000
    52  C          0.78742820       0.63705840       0.39038000
    53  C          0.23658170       0.29073160       0.64850190
    54  C          0.76341830       0.70926840       0.35149810
    55  H          0.22100000       0.29360000       0.71470000
    56  H          0.77900000       0.70640000       0.28530000
    57  C          0.28369160       0.21397160       0.59011190
    58  C          0.71630840       0.78602840       0.40988810
    59  H          0.29890000       0.16400000       0.61660000
    60  H          0.70110000       0.83600000       0.38340000
    61  O          0.16511140       0.44163120       0.65842140
    62  O          0.83488860       0.55836880       0.34157860
    63  C          0.15432000       0.46173170       0.76712000
    64  C          0.84568000       0.53826830       0.23288000
    65  H          0.22040000       0.47700000       0.81810000
    66  H          0.77960000       0.52300000       0.18190000
    67  H          0.11870000       0.40480000       0.77060000
    68  H          0.88130000       0.59520000       0.22940000
    69  C          0.09490190       0.54809170       0.79632000
    70  C          0.90509810       0.45190830       0.20368000
    71  H          0.12930000       0.60240000       0.78690000
    72  H          0.87070000       0.39760000       0.21310000
    73  H          0.09280000       0.56940000       0.87420000
    74  H          0.90720000       0.43060000       0.12580000
    75  C         -0.01166190       0.52665170       0.72762000
    76  C          0.01166190       0.47334830       0.27238000
    77  H          0.95930000       0.58880000       0.73750000
    78  H          0.04070000       0.41120000       0.26250000
    79  H         -0.01040000       0.49410000       0.64970000
    80  H          0.01040000       0.50590000       0.35030000
    81  C          0.92336820       0.46302160       0.75772000
    82  C          0.07663180       0.53697840       0.24228000
    83  C          0.87168000       0.50323180       0.83852000
    84  C          0.12832000       0.49676820       0.16148000
    85  H          0.87360000       0.57210000       0.86820000
    86  H          0.12640000       0.42790000       0.13180000
    87  N          0.81943830       0.45370140       0.87842180
    88  N          0.18056170       0.54629860       0.12157820
    89  C          0.81585820       0.35661160       0.83512190
    90  C          0.18414180       0.64338840       0.16487810
    91  C          0.86055820       0.30886170       0.75010190
    92  C          0.13944180       0.69113830       0.24989810
    93  H          0.85370000       0.23980000       0.71820000
    94  H          0.14630000       0.76020000       0.28180000
    95  C          0.91510810       0.36211170       0.71202000
    96  C          0.08489190       0.63788830       0.28798000
    97  H          0.94700000       0.32990000       0.65440000
    98  H          0.05300000       0.67010000       0.34560000
    99  C          0.76381830       0.30180160       0.88481190
   100  C          0.23618170       0.69819840       0.11518810
   101  C          0.70307810       0.34490180       0.95572000
   102  C          0.29692190       0.65509820       0.04428000
   103  H          0.69040000       0.41070000       0.97150000
   104  H          0.30960000       0.58930000       0.02850000
   105  C          0.66168000       0.29069190       0.00262000
   106  C          0.33832000       0.70930810      -0.00262000
   107  H          0.62020000       0.31870000       0.05160000
   108  H          0.37980000       0.68130000       0.94840000
   109  C          0.68101810       0.19514180       0.97802000
   110  C          0.31898190       0.80485820       0.02198000
   111  H          0.65350000       0.15690000       0.01030000
   112  H          0.34650000       0.84310000      -0.01030000
   113  C          0.74109830       0.15600160       0.90549190
   114  C          0.25890170       0.84399840       0.09450810
   115  N          0.78192860       0.20862130       0.85932150
   116  N          0.21807140       0.79137870       0.14067850
   117  C          0.76979840       0.05522160       0.87738180
   118  C          0.23020160       0.94477840       0.12261820
   119  N          0.75063860       0.00855140       0.94029160
   120  N          0.24936140      -0.00855140       0.05970840
   121  C          0.78619820       0.92253830       0.92382000
   122  C          0.21380180       0.07746170       0.07618000
   123  H          0.77340000       0.88970000       0.96880000
   124  H          0.22660000       0.11030000       0.03120000
   125  C          0.84005830       0.87757840       0.84659190
   126  C          0.15994170       0.12242160       0.15340810
   127  C          0.85254830       0.92440840       0.77777190
   128  C          0.14745170       0.07559160       0.22222810
   129  H          0.88480000       0.89490000       0.71980000
   130  H          0.11520000       0.10510000       0.28020000
   131  C          0.81795830       0.01398160       0.79386180
   132  C          0.18204170       0.98601840       0.20613820
   133  H          0.82720000       0.04690000       0.74780000
   134  H          0.17280000       0.95310000       0.25220000
   135  C          0.88552820       0.78614840       0.84292000
   136  C          0.11447180       0.21385160       0.15708000
   137  H          0.88330000       0.74420000       0.76600000
   138  H          0.11670000       0.25580000       0.23400000
   139  H          0.84550000       0.75030000       0.87220000
   140  H          0.15450000       0.24970000       0.12780000
   141  C         -0.00622180       0.80624820       0.90842000
   142  C          0.00622180       0.19375180       0.09158000
   143  H         -0.00280000       0.85670000       0.98170000
   144  H          0.00280000       0.14330000       0.01830000
   145  H          0.01430000       0.74610000       0.91800000
   146  H          0.98570000       0.25390000       0.08200000
   147  C          0.06637180       0.83953830       0.85631190
   148  C          0.93362820       0.16046170       0.14368810
   149  H          0.04610000       0.89840000       0.84360000
   150  H          0.95390000       0.10160000       0.15640000
   151  H          0.13410000       0.85520000       0.90430000
   152  H          0.86590000       0.14480000       0.09570000
   153  O          0.06551130       0.76137890       0.75493130
   154  O          0.93448870       0.23862110       0.24506870
   155  C          0.13261180       0.77167840       0.69676190
   156  C          0.86738820       0.22832160       0.30323810
   157  C          0.18961180       0.85744840       0.71932000
   158  C          0.81038820       0.14255160       0.28068000
   159  H          0.18650000       0.91390000       0.78100000
   160  H          0.81350000       0.08610000       0.21900000
   161  C          0.25111170       0.86055840       0.65162000
   162  C          0.74888830       0.13944160       0.34838000
   163  H          0.28840000       0.92040000       0.66630000
   164  H          0.71160000       0.07960000       0.33370000
   165  C          0.26001170       0.77893840       0.56259190
   166  C          0.73998830       0.22106160       0.43740810
   167  C          0.20410190       0.69236830       0.54432000
   168  C          0.79589810       0.30763170       0.45568000
   169  H          0.21000000       0.63470000       0.48540000
   170  H          0.79000000       0.36530000       0.51460000
   171  C          0.14082000       0.68863830       0.60952000
   172  C          0.85918000       0.31136170       0.39048000
   173  H          0.10270000       0.62920000       0.59470000
   174  H          0.89730000       0.37080000       0.40530000
   175  C          0.42663000       0.69033000       0.74713000
   176  C          0.57337000       0.30967000       0.25287000
   177  H          0.37130000       0.72600000       0.76160000
   178  H          0.62870000       0.27400000       0.23840000
   179  C          0.52144000       0.73263000       0.80263000
   180  C          0.47856000       0.26737000       0.19737000
   181  H          0.53230000       0.79680000       0.85660000
   182  H          0.46770000       0.20320000       0.14340000
   183  C          0.60113000       0.67954000       0.77804000
   184  C          0.39887000       0.32046000       0.22196000
   185  H          0.66760000       0.70720000       0.81470000
   186  H          0.33240000       0.29280000       0.18530000
   187  C          0.58274000       0.58684000       0.70034000
   188  C          0.41726000       0.41316000       0.29966000
   189  H          0.63660000       0.55000000       0.68280000
   190  H          0.36340000       0.45000000       0.31720000
   191  C          0.48814000       0.54763000       0.64843000
   192  C          0.51186000       0.45237000       0.35157000
   193  H          0.47590000       0.48320000       0.59460000
   194  H          0.52410000       0.51680000       0.40540000
   195  C          0.41173000       0.59883000       0.67253000
   196  C          0.58827000       0.40117000       0.32747000
   197  H          0.34550000       0.57000000       0.63600000
   198  H          0.65450000       0.43000000       0.36400000
   199  C          0.06282000       0.18342000       0.82042000
   200  C          0.93718000       0.81658000       0.17958000
   201  H         -0.00730000       0.16980000       0.79380000
   202  H          0.00730000       0.83020000       0.20620000
   203  C          0.10302000       0.27322000       0.89842000
   204  C          0.89698000       0.72678000       0.10158000
   205  H          0.06080000       0.32200000       0.92440000
   206  H          0.93920000       0.67800000       0.07560000
   207  C          0.20462000       0.29217190       0.93872000
   208  C          0.79538000       0.70782810       0.06128000
   209  H          0.23290000       0.35400000      -0.00740000
   210  H          0.76710000       0.64600000       0.00740000
   211  C          0.26482000       0.22080190       0.90002000
   212  C          0.73518000       0.77919810       0.09998000
   213  H          0.33480000       0.23330000       0.92840000
   214  H          0.66520000       0.76670000       0.07160000
   215  C          0.22482000       0.13160190       0.82082000
   216  C          0.77518000       0.86839810       0.17918000
   217  H          0.26690000       0.08300000       0.79390000
   218  H          0.73310000       0.91700000       0.20610000
   219  C          0.12363000       0.11342000       0.78102000
   220  C          0.87637000       0.88658000       0.21898000
   221  H          0.09550000       0.05210000       0.72600000
   222  H          0.90450000       0.94790000       0.27400000
   223  C          0.47022000       0.48564190       0.89202000
   224  C          0.52978000       0.51435810       0.10798000
   225  H          0.44990000       0.47610000       0.81720000
   226  H          0.55010000       0.52390000       0.18280000
   227  C          0.54622000       0.55714190       0.96012000
   228  C          0.45378000       0.44285810       0.03988000
   229  H          0.57810000       0.59670000       0.93230000
   230  H          0.42190000       0.40330000       0.06770000
   231  C          0.42472000       0.42920180       0.93172000
   232  C          0.57528000       0.57079820       0.06828000
   233  H          0.37250000       0.38010000       0.88480000
   234  H          0.62750000       0.61990000       0.11520000
   235  C          0.09392000      -0.00314000       0.48112000
   236  C          0.90608000       0.00314000       0.51888000
   237  H          0.15920000      -0.00540000       0.46810000
   238  H          0.84080000       0.00540000       0.53190000
   239  C          0.04543000       0.07693000       0.48973000
   240  C          0.95457000       0.92307000       0.51027000
   241  H          0.07680000       0.13090000       0.48240000
   242  H          0.92320000       0.86910000       0.51760000
   243  C          0.04783000       0.91987000       0.49123000
   244  C          0.95217000       0.08013000       0.50877000
   245  H          0.08110000       0.86350000       0.48480000
   246  H          0.91890000       0.13650000       0.51520000
   247  O          0.40282000      -0.00318000       0.93422000
   248  O          0.59718000       0.00318000       0.06578000
