data_PEWZUP
_symmetry_space_group_name_H-M    'P1'
_symmetry_Int_Tables_number       1
loop_
_symmetry_equiv_pos_site_id
_symmetry_equiv_pos_as_xyz
1 x,y,z
_cell_length_a                   6.08614
_cell_length_b                   14.477311
_cell_length_c                   12.03037
_cell_angle_alpha                90.0
_cell_angle_beta                 97.8125
_cell_angle_gamma                90.0
loop_
_atom_site_label
_atom_site_type_symbol
_atom_site_fract_x
_atom_site_fract_y
_atom_site_fract_z
     1  I          0.59338900       0.17085400       0.05590400
     2  I          0.90661100       0.67085400       0.44409600
     3  I          0.40661100       0.82914600       0.94409600
     4  I          0.09338900       0.32914600       0.55590400
     5  I          0.51595900       0.40299500       0.01140500
     6  I         -0.01595900       0.90299500       0.48859500
     7  I          0.48404100       0.59700500      -0.01140500
     8  I          0.01595900       0.09700500       0.51140500
     9  Br         0.04393130       0.28681600       0.20566700
    10  Br         0.45606870       0.78681600       0.29433300
    11  Br         0.95606870       0.71318400       0.79433300
    12  Br         0.54393130       0.21318400       0.70566700
    13  N          0.44591100       0.35015000       0.33395000
    14  N          0.05408900       0.85015000       0.16605000
    15  N          0.55408900       0.64985000       0.66605000
    16  N          0.94591100       0.14985000       0.83395000
    17  N          0.23221100       0.46185000       0.26305000
    18  N          0.26778900       0.96185000       0.23695000
    19  N          0.76778900       0.53815000       0.73695000
    20  N          0.73221100       0.03815000       0.76305000
    21  C          0.25381300       0.37036000       0.27216000
    22  C          0.24618700       0.87036000       0.22784000
    23  C          0.74618700       0.62964000       0.72784000
    24  C          0.75381300       0.12964000       0.77216000
    25  C          0.04711400       0.51216000       0.19737000
    26  C          0.45288600       0.01216000       0.30263000
    27  C          0.95288600       0.48784000       0.80263000
    28  C          0.54711400       0.98784000       0.69737000
    29  H          0.07677100       0.51879300       0.11961000
    30  H          0.42322900       0.01879300       0.38039000
    31  H          0.92322900       0.48120700       0.88039000
    32  H          0.57677100       0.98120700       0.61961000
    33  H          0.03262900       0.57335600       0.23013100
    34  H          0.46737100       0.07335600       0.26986900
    35  H          0.96737100       0.42664400       0.76986900
    36  H          0.53262900       0.92664400       0.73013100
    37  H          0.90904200       0.47745800       0.19837700
    38  H          0.59095800       0.97745800       0.30162300
    39  H          0.09095800       0.52254200       0.80162300
    40  H          0.40904200       0.02254200       0.69837700
    41  C          0.55001400       0.43276000       0.36497000
    42  C          0.94998600       0.93276000       0.13503000
    43  C          0.44998600       0.56724000       0.63503000
    44  C          0.05001400       0.06724000       0.86497000
    45  H          0.69060100       0.43953600       0.40919700
    46  H          0.80939900       0.93953600       0.09080300
    47  H          0.30939900       0.56046400       0.59080300
    48  H          0.19060100       0.06046400       0.90919700
    49  C          0.52981400       0.25786000       0.36677000
    50  C          0.97018600       0.75786000       0.13323000
    51  C          0.47018600       0.74214000       0.63323000
    52  C          0.02981400       0.24214000       0.86677000
    53  H          0.42247300       0.22581700       0.40688700
    54  H          0.07752700       0.72581700       0.09311300
    55  H          0.57752700       0.77418300       0.59311300
    56  H          0.92247300       0.27418300       0.90688700
    57  H          0.67153300       0.26339600       0.41574700
    58  H          0.82846700       0.76339600       0.08425300
    59  H          0.32846700       0.73660400       0.58425300
    60  H          0.17153300       0.23660400       0.91574700
    61  H          0.55133800       0.22259500       0.29951900
    62  H          0.94866200       0.72259500       0.20048100
    63  H          0.44866200       0.77740500       0.70048100
    64  H          0.05133800       0.27740500       0.79951900
    65  C          0.41911500       0.50116000       0.32177000
    66  C          0.08088500       0.00116000       0.17823000
    67  C          0.58088500       0.49884000       0.67823000
    68  C          0.91911500      -0.00116000       0.82177000
    69  H          0.44909300       0.56531000       0.32995800
    70  H          0.05090700       0.06531000       0.17004200
    71  H          0.55090700       0.43469000       0.67004200
    72  H          0.94909300       0.93469000       0.82995800
