data_PEXFAD
_symmetry_space_group_name_H-M    'P1'
_symmetry_Int_Tables_number       1
loop_
_symmetry_equiv_pos_site_id
_symmetry_equiv_pos_as_xyz
1 x,y,z
_cell_length_a                   12.18871
_cell_length_b                   7.04915
_cell_length_c                   20.110915
_cell_angle_alpha                90.0
_cell_angle_beta                 90.4383
_cell_angle_gamma                90.0
loop_
_atom_site_label
_atom_site_type_symbol
_atom_site_fract_x
_atom_site_fract_y
_atom_site_fract_z
     1  Br         0.60395500       0.48724800       0.69912300
     2  Br         0.39604500      -0.01275200       0.80087700
     3  Br         0.39604500       0.51275200       0.30087700
     4  Br         0.60395500       0.01275200       0.19912300
     5  Br         0.06599500       0.72558110       0.84078300
     6  Br         0.93400500       0.22558110       0.65921700
     7  Br         0.93400500       0.27441890       0.15921700
     8  Br         0.06599500       0.77441890       0.34078300
     9  O          0.58933000       0.28905000       0.54292160
    10  O          0.41067000       0.78905000       0.95707840
    11  O          0.41067000       0.71095000       0.45707840
    12  O          0.58933000       0.21095000       0.04292160
    13  C          0.18725000       0.19088000       0.53923000
    14  C          0.81275000       0.69088000       0.96077000
    15  C          0.81275000       0.80912000       0.46077000
    16  C          0.18725000       0.30912000       0.03923000
    17  H          0.11356600       0.17678700       0.54993000
    18  H          0.88643400       0.67678700       0.95007000
    19  H          0.88643400       0.82321300       0.45007000
    20  H          0.11356600       0.32321300       0.04993000
    21  C          0.21945000       0.17308000       0.47513000
    22  C          0.78055000       0.67308000       0.02487000
    23  C          0.78055000       0.82692000       0.52487000
    24  C          0.21945000       0.32692000       0.97513000
    25  H          0.16763500       0.14471800       0.44236500
    26  H          0.83236500       0.64471800       0.05763500
    27  H          0.83236500       0.85528200       0.55763500
    28  H          0.16763500       0.35528200       0.94236500
    29  C          0.32844000       0.19667000       0.45773000
    30  C          0.67156000       0.69667000       0.04227000
    31  C          0.67156000       0.80333000       0.54227000
    32  C          0.32844000       0.30333000       0.95773000
    33  H          0.34939700       0.18683800       0.41342900
    34  H          0.65060300       0.68683800       0.08657100
    35  H          0.65060300       0.81316200       0.58657100
    36  H          0.34939700       0.31316200       0.91342900
    37  C          0.40574000       0.23456000       0.50652000
    38  C          0.59426000       0.73456000      -0.00652000
    39  C          0.59426000       0.76544000       0.49348000
    40  C          0.40574000       0.26544000       0.00652000
    41  C          0.52204000       0.25446000       0.48852000
    42  C          0.47796000       0.75446000       0.01148000
    43  C          0.47796000       0.74554000       0.51148000
    44  C          0.52204000       0.24554000       0.98852000
    45  C          0.56794000       0.24297000       0.42822000
    46  C          0.43206000       0.74297000       0.07178000
    47  C          0.43206000       0.75703000       0.57178000
    48  C          0.56794000       0.25703000       0.92822000
    49  H          0.52382200       0.22008300       0.39111100
    50  H          0.47617800       0.72008300       0.10888900
    51  H          0.47617800       0.77991700       0.60888900
    52  H          0.52382200       0.27991700       0.89111100
    53  C          0.68544000       0.26536000       0.42002000
    54  C          0.31456000       0.76536000       0.07998000
    55  C          0.31456000       0.73464000       0.57998000
    56  C          0.68544000       0.23464000       0.92002000
    57  C          0.73935000       0.25328000       0.36043000
    58  C          0.26065000       0.75328000       0.13957000
    59  C          0.26065000       0.74672000       0.63957000
    60  C          0.73935000       0.24672000       0.86043000
    61  H          0.69992700       0.22970700       0.32150700
    62  H          0.30007300       0.72970700       0.17849300
    63  H          0.30007300       0.77029300       0.67849300
    64  H          0.69992700       0.27029300       0.82150700
    65  C          0.84755000       0.27498000       0.35823000
    66  C          0.15245000       0.77498000       0.14177000
    67  C          0.15245000       0.72502000       0.64177000
    68  C          0.84755000       0.22502000       0.85823000
    69  H          0.88185400       0.26629000       0.31716900
    70  H          0.11814600       0.76629000       0.18283100
    71  H          0.11814600       0.73371000       0.68283100
    72  H          0.88185400       0.23371000       0.81716900
    73  C          0.91124000       0.30978000       0.41403000
    74  C          0.08876000       0.80978000       0.08597000
    75  C          0.08876000       0.69022000       0.58597000
    76  C          0.91124000       0.19022000       0.91403000
    77  H          0.98663500       0.32389300       0.40955700
    78  H          0.01336500       0.82389300       0.09044300
    79  H          0.01336500       0.67610700       0.59044300
    80  H          0.98663500       0.17610700       0.90955700
    81  C          0.26275000       0.22927000       0.58813000
    82  C          0.73725000       0.72927000       0.91187000
    83  C          0.73725000       0.77073000       0.41187000
    84  C          0.26275000       0.27073000       0.08813000
    85  H          0.24015800       0.23930800       0.63205300
    86  H          0.75984200       0.73930800       0.86794700
    87  H          0.75984200       0.76069200       0.36794700
    88  H          0.24015800       0.26069200       0.13205300
    89  C          0.37344000       0.25336000       0.57252000
    90  C          0.62656000       0.75336000       0.92748000
    91  C          0.62656000       0.74664000       0.42748000
    92  C          0.37344000       0.24664000       0.07252000
    93  H          0.42459800       0.28130000       0.60560400
    94  H          0.57540200       0.78130000       0.89439600
    95  H          0.57540200       0.71870000       0.39439600
    96  H          0.42459800       0.21870000       0.10560400
    97  C          0.74774000       0.30046000       0.47952000
    98  C          0.25226000       0.80046000       0.02048000
    99  C          0.25226000       0.69954000       0.52048000
   100  C          0.74774000       0.19954000       0.97952000
   101  C          0.69594000       0.31138000       0.53862000
   102  C          0.30406000       0.81138000       0.96138000
   103  C          0.30406000       0.68862000       0.46138000
   104  C          0.69594000       0.18862000       0.03862000
   105  H          0.73660200       0.33512000       0.57698700
   106  H          0.26339800       0.83512000       0.92301300
   107  H          0.26339800       0.66488000       0.42301300
   108  H          0.73660200       0.16488000       0.07698700
   109  C          0.86574000       0.32338000       0.47473000
   110  C          0.13426000       0.82338000       0.02527000
   111  C          0.13426000       0.67662000       0.52527000
   112  C          0.86574000       0.17662000       0.97473000
   113  H          0.90851600       0.34664200       0.51232600
   114  H          0.09148400       0.84664200       0.98767400
   115  H          0.09148400       0.65335800       0.48767400
   116  H          0.90851600       0.15335800       0.01232600
   117  O          0.22675000       0.43029000       0.78063000
   118  O          0.77325000       0.93029000       0.71937000
   119  O          0.77325000       0.56971000       0.21937000
   120  O          0.22675000       0.06971000       0.28063000
   121  H          0.21426000       0.48807000       0.74102000
   122  H          0.78574000      -0.01193000       0.75898000
   123  H          0.78574000       0.51193000       0.25898000
   124  H          0.21426000       0.01193000       0.24102000
   125  H          0.18775000       0.49733000       0.80594000
   126  H          0.81225000      -0.00267000       0.69406000
   127  H          0.81225000       0.50267000       0.19406000
   128  H          0.18775000       0.00267000       0.30594000
   129  O          0.41263000       0.53185000       0.80395180
   130  O          0.58737000       0.03185000       0.69604820
   131  O          0.58737000       0.46815000       0.19604820
   132  O          0.41263000       0.96815000       0.30395180
   133  H          0.43156000       0.47094000       0.83992000
   134  H          0.56844000       0.97094000       0.66008000
   135  H          0.56844000       0.52906000       0.16008000
   136  H          0.43156000       0.02906000       0.33992000
   137  H          0.40957000       0.64848000       0.81623000
   138  H          0.59043000       0.14848000       0.68377000
   139  H          0.59043000       0.35152000       0.18377000
   140  H          0.40957000       0.85152000       0.31623000
   141  O          0.12445000       0.14139000       0.76874000
   142  O          0.87555000       0.64139000       0.73126000
   143  O          0.87555000       0.85861000       0.23126000
   144  O          0.12445000       0.35861000       0.26874000
   145  H          0.14678000       0.10065000       0.73023000
   146  H          0.85322000       0.60065000       0.76977000
   147  H          0.85322000       0.89935000       0.26977000
   148  H          0.14678000       0.39935000       0.23023000
   149  H          0.06028000       0.18091000       0.76014000
   150  H          0.93972000       0.68091000       0.73986000
   151  H          0.93972000       0.81909000       0.23986000
   152  H          0.06028000       0.31909000       0.26014000
   153  H          0.12958000       0.06123000       0.80172000
   154  H          0.87042000       0.56123000       0.69828000
   155  H          0.87042000       0.93877000       0.19828000
   156  H          0.12958000       0.43877000       0.30172000
