data_PHNSNB12
_symmetry_space_group_name_H-M    'P1'
_symmetry_Int_Tables_number       1
loop_
_symmetry_equiv_pos_site_id
_symmetry_equiv_pos_as_xyz
1 x,y,z
_cell_length_a                   14.6396
_cell_length_b                   17.4978
_cell_length_c                   6.8123
_cell_angle_alpha                90.0
_cell_angle_beta                 90.0
_cell_angle_gamma                90.0
loop_
_atom_site_label
_atom_site_type_symbol
_atom_site_fract_x
_atom_site_fract_y
_atom_site_fract_z
     1  S          0.70470700       0.25000000       0.44396120
     2  S          0.20470700       0.25000000       0.05603880
     3  S          0.29529300       0.75000000       0.55603880
     4  S          0.79529300       0.75000000       0.94396120
     5  N          0.91412000       0.25000070       0.45365000
     6  N          0.41412000       0.24999930       0.04635000
     7  N          0.08588000       0.75000070       0.54635000
     8  N          0.58588000       0.74999930       0.95365000
     9  C          0.87282170       0.32016130       0.41144000
    10  C          0.37282170       0.17983870       0.08856000
    11  C          0.12717830       0.82016130       0.58856000
    12  C          0.62717830       0.67983870       0.91144000
    13  C          0.12717830       0.67983870       0.58856000
    14  C          0.62717830       0.82016130       0.91144000
    15  C          0.87282170       0.17983870       0.41144000
    16  C          0.37282170       0.32016130       0.08856000
    17  C          0.92837180       0.38461150       0.38304000
    18  C          0.42837180       0.11538850       0.11696000
    19  C          0.07162820       0.88461150       0.61696000
    20  C          0.57162820       0.61538850       0.88304000
    21  C          0.07162820       0.61538850       0.61696000
    22  C          0.57162820       0.88461150       0.88304000
    23  C          0.92837180       0.11538850       0.38304000
    24  C          0.42837180       0.38461150       0.11696000
    25  C          0.88960190       0.45409160       0.34054000
    26  C          0.38960190       0.04590840       0.15946000
    27  C          0.11039810       0.95409160       0.65946000
    28  C          0.61039810       0.54590840       0.84054000
    29  C          0.11039810       0.54590840       0.65946000
    30  C          0.61039810       0.95409160       0.84054000
    31  C          0.88960190       0.04590840       0.34054000
    32  C          0.38960190       0.45409160       0.15946000
    33  C          0.79569180       0.46097160       0.32453000
    34  C          0.29569180       0.03902840       0.17547000
    35  C          0.20430820       0.96097160       0.67547000
    36  C          0.70430820       0.53902840       0.82453000
    37  C          0.20430820       0.53902840       0.67547000
    38  C          0.70430820       0.96097160       0.82453000
    39  C          0.79569180       0.03902840       0.32453000
    40  C          0.29569180       0.46097160       0.17547000
    41  C          0.74035170       0.39854140       0.35314000
    42  C          0.24035170       0.10145860       0.14686000
    43  C          0.25964830       0.89854140       0.64686000
    44  C          0.75964830       0.60145860       0.85314000
    45  C          0.25964830       0.60145860       0.64686000
    46  C          0.75964830       0.89854140       0.85314000
    47  C          0.74035170       0.10145860       0.35314000
    48  C          0.24035170       0.39854140       0.14686000
    49  C          0.77888160       0.32832130       0.39883000
    50  C          0.27888160       0.17167870       0.10117000
    51  C          0.22111840       0.82832130       0.60117000
    52  C          0.72111840       0.67167870       0.89883000
    53  C          0.22111840       0.67167870       0.60117000
    54  C          0.72111840       0.82832130       0.89883000
    55  C          0.77888160       0.17167870       0.39883000
    56  C          0.27888160       0.32832130       0.10117000
    57  H         -0.00730000       0.37960000       0.39130000
    58  H          0.49270000       0.12040000       0.10870000
    59  H          0.00730000       0.87960000       0.60870000
    60  H          0.50730000       0.62040000       0.89130000
    61  H          0.00730000       0.62040000       0.60870000
    62  H          0.50730000       0.87960000       0.89130000
    63  H         -0.00730000       0.12040000       0.39130000
    64  H          0.49270000       0.37960000       0.10870000
    65  H          0.92770000       0.49820000       0.32590000
    66  H          0.42770000       0.00180000       0.17410000
    67  H          0.07230000      -0.00180000       0.67410000
    68  H          0.57230000       0.50180000       0.82590000
    69  H          0.07230000       0.50180000       0.67410000
    70  H          0.57230000      -0.00180000       0.82590000
    71  H          0.92770000       0.00180000       0.32590000
    72  H          0.42770000       0.49820000       0.17410000
    73  H          0.76870000       0.50870000       0.29580000
    74  H          0.26870000       0.99130000       0.20420000
    75  H          0.23130000       0.00870000       0.70420000
    76  H          0.73130000       0.49130000       0.79580000
    77  H          0.23130000       0.49130000       0.70420000
    78  H          0.73130000       0.00870000       0.79580000
    79  H          0.76870000       0.99130000       0.29580000
    80  H          0.26870000       0.50870000       0.20420000
    81  H          0.67520000       0.40270000       0.34450000
    82  H          0.17520000       0.09730000       0.15550000
    83  H          0.32480000       0.90270000       0.65550000
    84  H          0.82480000       0.59730000       0.84450000
    85  H          0.32480000       0.59730000       0.65550000
    86  H          0.82480000       0.90270000       0.84450000
    87  H          0.67520000       0.09730000       0.34450000
    88  H          0.17520000       0.40270000       0.15550000
    89  H          0.97240000       0.25000000       0.46750000
    90  H          0.47240000       0.25000000       0.03250000
    91  H          0.02760000       0.75000000       0.53250000
    92  H          0.52760000       0.75000000       0.96750000
    93  O          0.91116120       0.44719110       0.86227000
    94  O          0.41116120       0.05280890       0.63773000
    95  O          0.08883880       0.94719110       0.13773000
    96  O          0.58883880       0.55280890       0.36227000
    97  O          0.08883880       0.55280890       0.13773000
    98  O          0.58883880       0.94719110       0.36227000
    99  O          0.91116120       0.05280890       0.86227000
   100  O          0.41116120       0.44719110       0.63773000
   101  O          0.03746100       0.38677110       0.91647000
   102  O          0.53746100       0.11322890       0.58353000
   103  O          0.96253900       0.88677110       0.08353000
   104  O          0.46253900       0.61322890       0.41647000
   105  O          0.96253900       0.61322890       0.08353000
   106  O          0.46253900       0.88677110       0.41647000
   107  O          0.03746100       0.11322890       0.91647000
   108  O          0.53746100       0.38677110       0.58353000
   109  O          0.62654130       0.31192120       0.94407000
   110  O          0.12654130       0.18807880       0.55593000
   111  O          0.37345870       0.81192120       0.05593000
   112  O          0.87345870       0.68807880       0.44407000
   113  O          0.37345870       0.68807880       0.05593000
   114  O          0.87345870       0.81192120       0.44407000
   115  O          0.62654130       0.18807880       0.94407000
   116  O          0.12654130       0.31192120       0.55593000
   117  N          0.95538140       0.38964120       0.89677000
   118  N          0.45538140       0.11035880       0.60323000
   119  N          0.04461860       0.88964120       0.10323000
   120  N          0.54461860       0.61035880       0.39677000
   121  N          0.04461860       0.61035880       0.10323000
   122  N          0.54461860       0.88964120       0.39677000
   123  N          0.95538140       0.11035880       0.89677000
   124  N          0.45538140       0.38964120       0.60323000
   125  N          0.66552000       0.25000000       0.93845000
   126  N          0.16552000       0.25000000       0.56155000
   127  N          0.33448000       0.75000000       0.06155000
   128  N          0.83448000       0.75000000       0.43845000
   129  C          0.95372000       0.25000070       0.90565000
   130  C          0.45372000       0.24999930       0.59435000
   131  C          0.04628000       0.75000070       0.09435000
   132  C          0.54628000       0.74999930       0.40565000
   133  C          0.90438150       0.31735140       0.91047000
   134  C          0.40438150       0.18264860       0.58953000
   135  C          0.09561850       0.81735140       0.08953000
   136  C          0.59561850       0.68264860       0.41047000
   137  C          0.09561850       0.68264860       0.08953000
   138  C          0.59561850       0.81735140       0.41047000
   139  C          0.90438150       0.18264860       0.91047000
   140  C          0.40438150       0.31735140       0.58953000
   141  C          0.81094150       0.31869130       0.91927000
   142  C          0.31094150       0.18130870       0.58073000
   143  C          0.18905850       0.81869130       0.08073000
   144  C          0.68905850       0.68130870       0.41927000
   145  C          0.18905850       0.68130870       0.08073000
   146  C          0.68905850       0.81869130       0.41927000
   147  C          0.81094150       0.18130870       0.91927000
   148  C          0.31094150       0.31869130       0.58073000
   149  C          0.76442000       0.25000000       0.92395000
   150  C          0.26442000       0.25000000       0.57605000
   151  C          0.23558000       0.75000000       0.07605000
   152  C          0.73558000       0.75000000       0.42395000
   153  H          0.02470000       0.25000000       0.94430000
   154  H          0.52470000       0.25000000       0.55570000
   155  H          0.97530000       0.75000000       0.05570000
   156  H          0.47530000       0.75000000       0.44430000
   157  H          0.77920000       0.36460000       0.91990000
   158  H          0.27920000       0.13540000       0.58010000
   159  H          0.22080000       0.86460000       0.08010000
   160  H          0.72080000       0.63540000       0.41990000
   161  H          0.22080000       0.63540000       0.08010000
   162  H          0.72080000       0.86460000       0.41990000
   163  H          0.77920000       0.13540000       0.91990000
   164  H          0.27920000       0.36460000       0.58010000
