data_PICHOY
_symmetry_space_group_name_H-M    'P1'
_symmetry_Int_Tables_number       1
loop_
_symmetry_equiv_pos_site_id
_symmetry_equiv_pos_as_xyz
1 x,y,z
_cell_length_a                   9.8323
_cell_length_b                   10.1403
_cell_length_c                   10.9774
_cell_angle_alpha                92.762
_cell_angle_beta                 97.122
_cell_angle_gamma                118.722
loop_
_atom_site_label
_atom_site_type_symbol
_atom_site_fract_x
_atom_site_fract_y
_atom_site_fract_z
     1  C          0.35406000       0.28106000       0.78785000
     2  C          0.64594000       0.71894000       0.21215000
     3  C          0.40766000       0.23226000       0.88925000
     4  C          0.59234000       0.76774000       0.11075000
     5  C          0.55637000       0.33507000       0.95605000
     6  C          0.44363000       0.66493000       0.04395000
     7  Br         0.63261000       0.27491000       0.09871000
     8  Br         0.36739000       0.72509000       0.90129000
     9  C          0.64867000       0.47557000       0.92125000
    10  C          0.35133000       0.52443000       0.07875000
    11  C          0.59286000       0.52196000       0.81905000
    12  C          0.40714000       0.47804000       0.18095000
    13  C          0.44366000       0.42246000       0.75195000
    14  C          0.55634000       0.57754000       0.24805000
    15  C          0.35556000       0.43876000       0.63905000
    16  C          0.64444000       0.56124000       0.36095000
    17  C          0.39227000       0.55666000       0.56895000
    18  C          0.60773000       0.44334000       0.43105000
    19  C          0.28597000       0.53797000       0.46395000
    20  C          0.71403000       0.46203000       0.53605000
    21  C          0.14757000       0.40267000       0.43185000
    22  C          0.85243000       0.59733000       0.56815000
    23  Br         0.00331000       0.37791000       0.28841000
    24  Br        -0.00331000       0.62209000       0.71159000
    25  C          0.10736000       0.28146000       0.50155000
    26  C          0.89264000       0.71854000       0.49845000
    27  C          0.21446000       0.30436000       0.60695000
    28  C          0.78554000       0.69564000       0.39305000
    29  C          0.19516000       0.19095000       0.70045000
    30  C          0.80484000       0.80905000       0.29955000
    31  O          0.17403000       0.05043000       0.64432000
    32  O          0.82597000       0.94957000       0.35568000
    33  H          0.28350000       0.08510000       0.61020000
    34  H          0.71650000       0.91490000       0.38980000
    35  C          0.05803000       0.15433000       0.76992000
    36  C          0.94197000       0.84567000       0.23008000
    37  C          0.02573000       0.27173000       0.80272000
    38  C          0.97427000       0.72827000       0.19728000
    39  C          0.90493000       0.23857000       0.87066000
    40  C          0.09507000       0.76143000       0.12934000
    41  C          0.81823000       0.09687000       0.90406000
    42  C          0.18177000       0.90313000       0.09594000
    43  C          0.85152000      -0.01627000       0.87116000
    44  C          0.14848000       0.01627000       0.12884000
    45  C          0.97113000       0.01206000       0.80375000
    46  C          0.02887000      -0.01206000       0.19625000
    47  H          0.33810000       0.12050000       0.91520000
    48  H          0.66190000       0.87950000       0.08480000
    49  H          0.76460000       0.54980000       0.97340000
    50  H          0.23540000       0.45020000       0.02660000
    51  H          0.66350000       0.63250000       0.79160000
    52  H          0.33650000       0.36750000       0.20840000
    53  H          0.50160000       0.66170000       0.59440000
    54  H          0.49840000       0.33830000       0.40560000
    55  H          0.31180000       0.62930000       0.40810000
    56  H          0.68820000       0.37070000       0.59190000
    57  H         -0.00120000       0.17570000       0.47520000
    58  H          0.00120000       0.82430000       0.52480000
    59  H          0.09270000       0.38350000       0.77610000
    60  H          0.90730000       0.61650000       0.22390000
    61  H          0.87880000       0.32670000       0.89710000
    62  H          0.12120000       0.67330000       0.10290000
    63  H          0.72470000       0.07400000       0.95610000
    64  H          0.27530000       0.92600000       0.04390000
    65  H          0.78440000       0.87250000       0.89860000
    66  H          0.21560000       0.12750000       0.10140000
    67  H         -0.00460000       0.92240000       0.77710000
    68  H          0.00460000       0.07760000       0.22290000
    69  O          0.42405000       0.07425000       0.54354000
    70  O          0.57595000       0.92575000       0.45646000
    71  C          0.51569000       0.03089000       0.62646000
    72  C          0.48431000       0.96911000       0.37354000
    73  C          0.35779000       0.97001000       0.43227000
    74  C          0.64221000       0.02999000       0.56773000
    75  H          0.56450000       0.10860000       0.71080000
    76  H          0.43550000       0.89140000       0.28920000
    77  H          0.44100000       0.91760000       0.64740000
    78  H          0.55900000       0.08240000       0.35260000
    79  H          0.28900000       0.00310000       0.36960000
    80  H          0.71100000      -0.00310000       0.63040000
    81  H          0.28300000       0.85730000       0.45400000
    82  H          0.71700000       0.14270000       0.54600000
