data_PIGJUK
_symmetry_space_group_name_H-M    'P1'
_symmetry_Int_Tables_number       1
loop_
_symmetry_equiv_pos_site_id
_symmetry_equiv_pos_as_xyz
1 x,y,z
_cell_length_a                   20.1772
_cell_length_b                   9.3081
_cell_length_c                   7.2451
_cell_angle_alpha                90.0
_cell_angle_beta                 93.211
_cell_angle_gamma                90.0
loop_
_atom_site_label
_atom_site_type_symbol
_atom_site_fract_x
_atom_site_fract_y
_atom_site_fract_z
     1  S          0.08092300       0.18120600       0.43222110
     2  S          0.41907700       0.68120600       0.56777890
     3  S          0.91907700       0.81879400       0.56777890
     4  S          0.58092300       0.31879400       0.43222110
     5  S          0.21548300       0.18359900       0.32912100
     6  S          0.28451700       0.68359900       0.67087900
     7  S          0.78451700       0.81640100       0.67087900
     8  S          0.71548300       0.31640100       0.32912100
     9  C          0.14761000       0.29003000       0.38234000
    10  C          0.35239000       0.79003000       0.61766000
    11  C          0.85239000       0.70997000       0.61766000
    12  C          0.64761000       0.20997000       0.38234000
    13  C          0.14481000       0.43453000       0.38294000
    14  C          0.35519000       0.93453000       0.61706000
    15  C          0.85519000       0.56547000       0.61706000
    16  C          0.64481000       0.06547000       0.38294000
    17  C          0.08781000       0.51893000       0.42473000
    18  C          0.41219000       0.01893000       0.57527000
    19  C          0.91219000       0.48107000       0.57527000
    20  C          0.58781000       0.98107000       0.42473000
    21  C          0.02731000       0.45552000       0.47793000
    22  C          0.47269000       0.95552000       0.52207000
    23  C          0.97269000       0.54448000       0.52207000
    24  C          0.52731000       0.04448000       0.47793000
    25  C          0.01931000       0.30383000       0.48843000
    26  C          0.48069000       0.80383000       0.51157000
    27  C          0.98069000       0.69617000       0.51157000
    28  C          0.51931000       0.19617000       0.48843000
    29  C          0.96079000       0.24493000       0.54364000
    30  C          0.53921000       0.74493000       0.45636000
    31  C          0.03921000       0.75507000       0.45636000
    32  C          0.46079000       0.25507000       0.54364000
    33  C          0.09191000       0.66803000       0.41284000
    34  C          0.40809000       0.16803000       0.58716000
    35  C          0.90809000       0.33197000       0.58716000
    36  C          0.59191000       0.83197000       0.41284000
    37  C          0.27822000       0.31624000       0.29565000
    38  C          0.22178000       0.81624000       0.70435000
    39  C          0.72178000       0.68376000       0.70435000
    40  C          0.77822000       0.18376000       0.29565000
    41  H          0.18320000       0.48040000       0.35540000
    42  H          0.31680000       0.98040000       0.64460000
    43  H          0.81680000       0.51960000       0.64460000
    44  H          0.68320000       0.01960000       0.35540000
    45  H          0.95380000       0.14340000       0.55940000
    46  H          0.54620000       0.64340000       0.44060000
    47  H          0.04620000       0.85660000       0.44060000
    48  H          0.45380000       0.35660000       0.55940000
    49  H          0.13420000       0.70740000       0.37740000
    50  H          0.36580000       0.20740000       0.62260000
    51  H          0.86580000       0.29260000       0.62260000
    52  H          0.63420000       0.79260000       0.37740000
    53  H          0.28420000       0.37150000       0.41950000
    54  H          0.21580000       0.87150000       0.58050000
    55  H          0.71580000       0.62850000       0.58050000
    56  H          0.78420000       0.12850000       0.41950000
    57  H          0.31520000       0.25350000       0.27750000
    58  H          0.18480000       0.75350000       0.72250000
    59  H          0.68480000       0.74650000       0.72250000
    60  H          0.81520000       0.24650000       0.27750000
    61  H          0.26620000       0.37250000       0.18250000
    62  H          0.23380000       0.87250000       0.81750000
    63  H          0.73380000       0.62750000       0.81750000
    64  H          0.76620000       0.12750000       0.18250000
    65  N          0.74441000       0.76063000       0.18704000
    66  N          0.75559000       0.26063000       0.81296000
    67  N          0.25559000       0.23937000       0.81296000
    68  N          0.24441000       0.73937000       0.18704000
    69  N          0.91382000       0.04233000       0.08945000
    70  N          0.58618000       0.54233000       0.91055000
    71  N          0.08618000       0.95767000       0.91055000
    72  N          0.41382000       0.45767000       0.08945000
    73  C          0.90551000       0.66873000       0.07213000
    74  C          0.59449000       0.16873000       0.92787000
    75  C          0.09449000       0.33127000       0.92787000
    76  C          0.40551000       0.83127000       0.07213000
    77  C          0.88011000       0.52443000       0.08144000
    78  C          0.61989000       0.02443000       0.91856000
    79  C          0.11989000       0.47557000       0.91856000
    80  C          0.38011000       0.97557000       0.08144000
    81  C          0.91881000       0.41013000       0.04994000
    82  C          0.58119000       0.91013000       0.95006000
    83  C          0.08119000       0.58987000       0.95006000
    84  C          0.41881000       0.08987000       0.04994000
    85  C          0.98711000       0.42792000       0.00583000
    86  C          0.51289000       0.92792000      -0.00583000
    87  C          0.01289000       0.57208000      -0.00583000
    88  C          0.48711000       0.07208000       0.00583000
    89  C          0.97311000       0.68733000       0.02634000
    90  C          0.52689000       0.18733000       0.97366000
    91  C          0.02689000       0.31267000       0.97366000
    92  C          0.47311000       0.81267000       0.02634000
    93  C          0.86631000       0.78643000       0.10574000
    94  C          0.63369000       0.28643000       0.89426000
    95  C          0.13369000       0.21357000       0.89426000
    96  C          0.36631000       0.71357000       0.10574000
    97  C          0.79861000       0.77323000       0.15094000
    98  C          0.70139000       0.27323000       0.84906000
    99  C          0.20139000       0.22677000       0.84906000
   100  C          0.29861000       0.72677000       0.15094000
   101  C          0.89222000       0.92933000       0.09634000
   102  C          0.60778000       0.42933000       0.90366000
   103  C          0.10778000       0.07067000       0.90366000
   104  C          0.39222000       0.57067000       0.09634000
   105  H          0.83320000       0.51440000       0.10840000
   106  H          0.66680000       0.01440000       0.89160000
   107  H          0.16680000       0.48560000       0.89160000
   108  H          0.33320000      -0.01440000       0.10840000
   109  H          0.90110000       0.31040000       0.05440000
   110  H          0.59890000       0.81040000       0.94560000
   111  H          0.09890000       0.68960000       0.94560000
   112  H          0.40110000       0.18960000       0.05440000
   113  H         -0.00690000       0.79740000       0.02340000
   114  H          0.50690000       0.29740000       0.97660000
   115  H          0.00690000       0.20260000       0.97660000
   116  H          0.49310000       0.70260000       0.02340000
