data_PIGXUY
_symmetry_space_group_name_H-M    'P1'
_symmetry_Int_Tables_number       1
loop_
_symmetry_equiv_pos_site_id
_symmetry_equiv_pos_as_xyz
1 x,y,z
_cell_length_a                   11.4137
_cell_length_b                   10.0387
_cell_length_c                   7.7606
_cell_angle_alpha                90.0
_cell_angle_beta                 90.0
_cell_angle_gamma                90.0
loop_
_atom_site_label
_atom_site_type_symbol
_atom_site_fract_x
_atom_site_fract_y
_atom_site_fract_z
     1  I          0.75641000       0.41951000       0.08871000
     2  I          0.25641000       0.08049000       0.91129000
     3  I          0.24359000       0.91951000       0.41129000
     4  I          0.74359000       0.58049000       0.58871000
     5  I          0.95761000       0.25261000       0.08992000
     6  I          0.45761000       0.24739000       0.91008000
     7  I          0.04239000       0.75261000       0.41008000
     8  I          0.54239000       0.74739000       0.58992000
     9  S          0.57064000       0.58805000       0.07429000
    10  S          0.07064000       0.91195000       0.92571000
    11  S          0.42936000       0.08805000       0.42571000
    12  S          0.92936000       0.41195000       0.57429000
    13  S          0.55494000       0.88045000       0.08991000
    14  S          0.05494000       0.61955000       0.91009000
    15  S          0.44506000       0.38045000       0.41009000
    16  S          0.94506000       0.11955000       0.58991000
    17  S          0.77964000       0.76166000       0.12668000
    18  S          0.27964000       0.73834000       0.87332000
    19  S          0.22036000       0.26166000       0.37332000
    20  S          0.72036000       0.23834000       0.62668000
    21  C          0.63541300       0.73731600       0.09582000
    22  C          0.13541300       0.76268400       0.90418000
    23  C          0.36458700       0.23731600       0.40418000
    24  C          0.86458700       0.26268400       0.59582000
    25  C          0.66891800      -0.01078200       0.12352300
    26  C          0.16891800       0.51078200       0.87647700
    27  C          0.33108200       0.48921800       0.37647700
    28  C          0.83108200       0.01078200       0.62352300
    29  C          0.77731800       0.93072300       0.14022600
    30  C          0.27731800       0.56927700       0.85977400
    31  C          0.22268200       0.43072300       0.35977400
    32  C          0.72268200       0.06927700       0.64022600
