data_PIHTUV
_symmetry_space_group_name_H-M    'P1'
_symmetry_Int_Tables_number       1
loop_
_symmetry_equiv_pos_site_id
_symmetry_equiv_pos_as_xyz
1 x,y,z
_cell_length_a                   7.3202
_cell_length_b                   11.2753
_cell_length_c                   16.3594
_cell_angle_alpha                94.864
_cell_angle_beta                 92.833
_cell_angle_gamma                100.784
loop_
_atom_site_label
_atom_site_type_symbol
_atom_site_fract_x
_atom_site_fract_y
_atom_site_fract_z
     1  O          0.53502000       0.47621600       0.19079000
     2  O          0.46498000       0.52378400       0.80921000
     3  O          0.69681800       0.35941700       0.24719000
     4  O          0.30318200       0.64058300       0.75281000
     5  O          0.19601400       0.63121300       0.09827000
     6  O          0.80398600       0.36878700       0.90173000
     7  O          0.50378300       0.93111500       0.85923000
     8  O          0.49621700       0.06888500       0.14077000
     9  N          0.24411600       0.40091100       0.29147000
    10  N          0.75588400       0.59908900       0.70853000
    11  N          0.41272000       0.27291500       0.33691000
    12  N          0.58728000       0.72708500       0.66309000
    13  N          0.55592300       0.40571800       0.23981100
    14  N          0.44407700       0.59428200       0.76018900
    15  N          0.13241800       0.72541400       0.05287000
    16  N          0.86758200       0.27458600       0.94713000
    17  C          0.40802200       0.35701800       0.28811000
    18  C          0.59197800       0.64298200       0.71189000
    19  C          0.24532800       0.25281600       0.37249000
    20  C          0.75467200       0.74718400       0.62751000
    21  C          0.14972100       0.34371700       0.34461000
    22  C          0.85027900       0.65628300       0.65539000
    23  C          0.18621900       0.50211400       0.24948000
    24  C          0.81378100       0.49788600       0.75052000
    25  C          0.09381800       0.44541600       0.16268000
    26  C          0.90618200       0.55458400       0.83732000
    27  C          0.05273300       0.55631600       0.11808000
    28  C          0.94726700       0.44368400       0.88192000
    29  C          0.88958000       0.57991600       0.08988000
    30  C          0.11042000       0.42008400       0.91012000
    31  C          0.94938100       0.68141600       0.04808000
    32  C          0.05061900       0.31858400       0.95192000
    33  C          0.83377900       0.75861500       0.00008000
    34  C          0.16622100       0.24138500      -0.00008000
    35  C          0.64108100       0.72611400      -0.00207000
    36  C          0.35891900       0.27388600       0.00207000
    37  C          0.53438000       0.78621600       0.95101000
    38  C          0.46562000       0.21378400       0.04899000
    39  C          0.61877500       0.87071800       0.90721000
    40  C          0.38122500       0.12928200       0.09279000
    41  C          0.82217600       0.91531600       0.90811000
    42  C          0.17782400       0.08468400       0.09189000
    43  C          0.91727900       0.84271700       0.95771000
    44  C          0.08272100       0.15728300       0.04229000
    45  C          0.59577200       0.01392200       0.81388800
    46  C          0.40422800       0.98607800       0.18611200
    47  C          0.45067700       0.06181600       0.75149000
    48  C          0.54932300       0.93818400       0.24851000
    49  C          0.44206600      -0.00057700       0.65878600
    50  C          0.55793400       0.00057700       0.34121400
    51  B          0.26736300       0.94732100       0.71568600
    52  B          0.73263700       0.05267900       0.28431400
    53  B          0.53257300       0.14442500       0.68958600
    54  B          0.46742700       0.85557500       0.31041400
    55  B          0.39957400       0.19522300       0.76628900
    56  B          0.60042600       0.80477700       0.23371100
    57  B          0.23507000       0.08342300       0.78048700
    58  B          0.76493000       0.91657700       0.21951300
    59  B          0.23026700       0.98442500       0.61228800
    60  B          0.76973300       0.01557500       0.38771200
    61  B          0.38596300       0.09683100       0.59588700
    62  B          0.61403700       0.90316900       0.40411300
    63  B          0.38116900       0.24432300       0.66148700
    64  B          0.61883100       0.75567700       0.33851300
    65  B          0.17426500       0.17553200       0.71458300
    66  B          0.82573500       0.82446800       0.28541700
    67  B          0.08937300       0.03342500       0.68358700
    68  B          0.91062700       0.96657500       0.31641300
    69  B          0.17106900       0.11882100       0.61758700
    70  B          0.82893100       0.88117900       0.38241300
    71  H          0.20070000       0.19030000       0.40870000
    72  H          0.79930000       0.80970000       0.59130000
    73  H          0.03090000       0.35950000       0.36360000
    74  H          0.96910000       0.64050000       0.63640000
    75  H          0.09610000       0.53720000       0.28140000
    76  H          0.90390000       0.46280000       0.71860000
    77  H          0.29510000       0.56530000       0.24330000
    78  H          0.70490000       0.43470000       0.75670000
    79  H         -0.02190000       0.38780000       0.16830000
    80  H          0.02190000       0.61220000       0.83170000
    81  H          0.17960000       0.40420000       0.13220000
    82  H          0.82040000       0.59580000       0.86780000
    83  H          0.76260000       0.53720000       0.09660000
    84  H          0.23740000       0.46280000       0.90340000
    85  H          0.58200000       0.66120000       0.02970000
    86  H          0.41800000       0.33880000       0.97030000
    87  H          0.39810000       0.76660000       0.95010000
    88  H          0.60190000       0.23340000       0.04990000
    89  H          0.88280000       0.98340000       0.87960000
    90  H          0.11720000       0.01660000       0.12040000
    91  H          0.05380000       0.85800000       0.95980000
    92  H          0.94620000       0.14200000       0.04020000
    93  H          0.66460000       0.08290000       0.85050000
    94  H          0.33540000       0.91710000       0.14950000
    95  H          0.68360000       0.97690000       0.78170000
    96  H          0.31640000       0.02310000       0.21830000
    97  H          0.18200000       0.89440000       0.74740000
    98  H          0.81800000       0.10560000       0.25260000
    99  H          0.61910000       0.19730000       0.65830000
   100  H          0.38090000       0.80270000       0.34170000
   101  H          0.39670000       0.27910000       0.78680000
   102  H          0.60330000       0.72090000       0.21320000
   103  H          0.14610000       0.03090000       0.81090000
   104  H          0.85390000       0.96910000       0.18910000
   105  H          0.14040000       0.90770000       0.60240000
   106  H          0.85960000       0.09230000       0.39760000
   107  H          0.47600000       0.15150000       0.56730000
   108  H          0.52400000       0.84850000       0.43270000
   109  H          0.38880000       0.29720000       0.61680000
   110  H          0.61120000       0.70280000       0.38320000
   111  H          0.18270000       0.26150000       0.73300000
   112  H          0.81730000       0.73850000       0.26700000
   113  H          0.00170000       0.98010000       0.71410000
   114  H         -0.00170000       0.01990000       0.28590000
   115  H          0.17760000       0.16760000       0.57060000
   116  H          0.82240000       0.83240000       0.42940000
   117  C          0.13355800       0.46964500       0.54551500
   118  C          0.86644200       0.53035500       0.45448500
   119  C          0.18053200       0.57383800       0.50882100
   120  C          0.81946800       0.42616200       0.49117900
   121  C          0.94958200       0.38912300       0.53801700
   122  C          0.05041800       0.61087700       0.46198300
