data_PIHYEO
_symmetry_space_group_name_H-M    'P1'
_symmetry_Int_Tables_number       1
loop_
_symmetry_equiv_pos_site_id
_symmetry_equiv_pos_as_xyz
1 x,y,z
_cell_length_a                   13.21382
_cell_length_b                   9.42032
_cell_length_c                   16.71243
_cell_angle_alpha                90.0
_cell_angle_beta                 94.9012
_cell_angle_gamma                90.0
loop_
_atom_site_label
_atom_site_type_symbol
_atom_site_fract_x
_atom_site_fract_y
_atom_site_fract_z
     1  Br         0.87496200       0.38882300       0.55711200
     2  Br         0.12503800       0.88882300       0.94288800
     3  Br         0.12503800       0.61117700       0.44288800
     4  Br         0.87496200       0.11117700       0.05711200
     5  Br         0.46235200       0.73050300       0.75087200
     6  Br         0.53764800       0.23050300       0.74912800
     7  Br         0.53764800       0.26949700       0.24912800
     8  Br         0.46235200       0.76949700       0.25087200
     9  S          0.30302400       0.40019500       0.60198300
    10  S          0.69697600       0.90019500       0.89801700
    11  S          0.69697600       0.59980500       0.39801700
    12  S          0.30302400       0.09980500       0.10198300
    13  S          0.60471400       0.15129600       0.45896300
    14  S          0.39528600       0.65129600       0.04103700
    15  S          0.39528600       0.84870400       0.54103700
    16  S          0.60471400       0.34870400       0.95896300
    17  O          0.46965110       0.29491170       0.54198900
    18  O          0.53034890       0.79491170       0.95801100
    19  O          0.53034890       0.70508830       0.45801100
    20  O          0.46965110       0.20508830       0.04198900
    21  N          0.50090140       0.49352000       0.61790110
    22  N          0.49909860      -0.00648000       0.88209890
    23  N          0.49909860       0.50648000       0.38209890
    24  N          0.50090140       0.00648000       0.11790110
    25  N          0.63169140       0.38182000       0.55983110
    26  N          0.36830860       0.88182000       0.94016890
    27  N          0.36830860       0.61818000       0.44016890
    28  N          0.63169140       0.11818000       0.05983110
    29  C          0.67565160       0.27902000       0.51495130
    30  C          0.32434840       0.77902000       0.98504870
    31  C          0.32434840       0.72098000       0.48504870
    32  C          0.67565160       0.22098000       0.01495130
    33  C          0.52951160       0.38362000       0.57093120
    34  C          0.47048840       0.88362000       0.92906880
    35  C          0.47048840       0.61638000       0.42906880
    36  C          0.52951160       0.11638000       0.07093120
    37  C          0.80287170       0.15342000       0.45507140
    38  C          0.19712830       0.65342000       0.04492860
    39  C          0.19712830       0.84658000       0.54492860
    40  C          0.80287170       0.34658000       0.95507140
    41  C          0.40289160       0.50812000       0.64076120
    42  C          0.59710840       0.00812000       0.85923880
    43  C          0.59710840       0.49188000       0.35923880
    44  C          0.40289160      -0.00812000       0.14076120
    45  C          0.77696170       0.26582000       0.50706130
    46  C          0.22303830       0.76582000      -0.00706130
    47  C          0.22303830       0.73418000       0.49293870
    48  C          0.77696170       0.23418000       0.00706130
    49  C          0.26541170       0.60232000       0.70387130
    50  C          0.73458830       0.10232000       0.79612870
    51  C          0.73458830       0.39768000       0.29612870
    52  C          0.26541170       0.89768000       0.20387130
    53  C          0.71526180       0.08242000       0.42278150
    54  C          0.28473820       0.58242000       0.07721850
    55  C          0.28473820       0.91758000       0.57721850
    56  C          0.71526180       0.41758000       0.92278150
    57  C          0.11482170       0.46493000       0.65824140
    58  C          0.88517830       0.96493000       0.84175860
    59  C          0.88517830       0.53507000       0.34175860
    60  C          0.11482170       0.03507000       0.15824140
    61  H          0.08376700       0.38971400       0.62723000
    62  H          0.91623300       0.88971400       0.87277000
    63  H          0.91623300       0.61028600       0.37277000
    64  H          0.08376700       0.11028600       0.12723000
    65  C          0.20684180       0.68773000       0.75089140
    66  C          0.79315820       0.18773000       0.74910860
    67  C          0.79315820       0.31227000       0.24910860
    68  C          0.20684180       0.81227000       0.25089140
    69  H          0.23732500       0.76275800       0.78235700
    70  H          0.76267500       0.26275800       0.71764300
    71  H          0.76267500       0.23724200       0.21764300
    72  H          0.23732500       0.73724200       0.28235700
    73  C          0.37222170       0.60502000       0.69381130
    74  C          0.62777830       0.10502000       0.80618870
    75  C          0.62777830       0.39498000       0.30618870
    76  C          0.37222170       0.89498000       0.19381130
    77  C          0.05838180       0.54993000       0.70529150
    78  C          0.94161820       0.04993000       0.79470850
    79  C          0.94161820       0.45007000       0.29470850
    80  C          0.05838180       0.95007000       0.20529150
    81  H          0.98772100       0.53270100       0.70677800
    82  H          0.01227900       0.03270100       0.79322200
    83  H          0.01227900       0.46729900       0.29322200
    84  H          0.98772100       0.96729900       0.20677800
    85  C          0.21822160       0.49242000       0.65750130
    86  C          0.78177840      -0.00758000       0.84249870
    87  C          0.78177840       0.50758000       0.34249870
    88  C          0.21822160       0.00758000       0.15750130
    89  C          0.89828180       0.10883000       0.43371150
    90  C          0.10171820       0.60883000       0.06628850
    91  C          0.10171820       0.89117000       0.56628850
    92  C          0.89828180       0.39117000       0.93371150
    93  H          0.95850900       0.15473600       0.45535600
    94  H          0.04149100       0.65473600       0.04464400
    95  H          0.04149100       0.84526400       0.54464400
    96  H          0.95850900       0.34526400       0.95535600
    97  C          0.10418180       0.66083000       0.75064140
    98  C          0.89581820       0.16083000       0.74935860
    99  C          0.89581820       0.33917000       0.24935860
   100  C          0.10418180       0.83917000       0.25064140
   101  H          0.06385200       0.71870900       0.78190100
   102  H          0.93614800       0.21870900       0.71809900
   103  H          0.93614800       0.28129100       0.21809900
   104  H          0.06385200       0.78129100       0.28190100
   105  C          0.72022000       0.97107000       0.36875170
   106  C          0.27978000       0.47107000       0.13124830
   107  C          0.27978000       0.02893000       0.63124830
   108  C          0.72022000       0.52893000       0.86875170
   109  H          0.66031600       0.92467300       0.34670500
   110  H          0.33968400       0.42467300       0.15329500
   111  H          0.33968400       0.07532700       0.65329500
   112  H          0.66031600       0.57532700       0.84670500
   113  C          0.90312000      -0.00303000       0.38070170
   114  C          0.09688000       0.49697000       0.11929830
   115  C          0.09688000       0.00303000       0.61929830
   116  C          0.90312000       0.50303000       0.88070170
   117  H          0.96740500       0.96541500       0.36627400
   118  H          0.03259500       0.46541500       0.13372600
   119  H          0.03259500       0.03458500       0.63372600
   120  H          0.96740500       0.53458500       0.86627400
   121  C          0.81502000       0.92977000       0.34805180
   122  C          0.18498000       0.42977000       0.15194820
   123  C          0.18498000       0.07023000       0.65194820
   124  C          0.81502000       0.57023000       0.84805180
   125  H          0.82021800       0.85434800       0.31092200
   126  H          0.17978200       0.35434800       0.18907800
   127  H          0.17978200       0.14565200       0.68907800
   128  H          0.82021800       0.64565200       0.81092200
   129  H          0.66920000       0.44430000       0.58081700
   130  H          0.33080000       0.94430000       0.91918300
   131  H          0.33080000       0.55570000       0.41918300
   132  H          0.66920000       0.05570000       0.08081700
   133  H          0.53920000       0.55130000       0.63081800
   134  H          0.46080000       0.05130000       0.86918200
   135  H          0.46080000       0.44870000       0.36918200
   136  H          0.53920000       0.94870000       0.13081800
   137  O          0.69303130       0.64921180       0.63411110
   138  O          0.30696870       0.14921180       0.86588890
   139  O          0.30696870       0.35078820       0.36588890
   140  O          0.69303130       0.85078820       0.13411110
   141  C          0.72560190       0.76683000       0.61911150
   142  C          0.27439810       0.26683000       0.88088850
   143  C          0.27439810       0.23317000       0.38088850
   144  C          0.72560190       0.73317000       0.11911150
   145  C          0.66142000       0.89593000       0.62064190
   146  C          0.33858000       0.39593000       0.87935810
   147  C          0.33858000       0.10407000       0.37935810
   148  C          0.66142000       0.60407000       0.12064190
   149  H          0.62352800       0.90857700       0.56812700
   150  H          0.37647200       0.40857700       0.93187300
   151  H          0.37647200       0.09142300       0.43187300
   152  H          0.62352800       0.59142300       0.06812700
   153  H          0.70474600       0.97894500       0.63279700
   154  H          0.29525400       0.47894500       0.86720300
   155  H          0.29525400       0.02105500       0.36720300
   156  H          0.70474600       0.52105500       0.13279700
   157  H          0.61369400       0.88551500       0.66201700
   158  H          0.38630600       0.38551500       0.83798300
   159  H          0.38630600       0.11448500       0.33798300
   160  H          0.61369400       0.61448500       0.16201700
   161  C          0.83102000       0.78873000       0.59493000
   162  C          0.16898000       0.28873000       0.90507000
   163  C          0.16898000       0.21127000       0.40507000
   164  C          0.83102000       0.71127000       0.09493000
   165  H          0.87200900       0.83758800       0.63811000
   166  H          0.12799100       0.33758800       0.86189000
   167  H          0.12799100       0.16241200       0.36189000
   168  H          0.87200900       0.66241200       0.13811000
   169  H          0.82831600       0.84638100       0.54593900
   170  H          0.17168400       0.34638100       0.95406100
   171  H          0.17168400       0.15361900       0.45406100
   172  H          0.82831600       0.65361900       0.04593900
   173  H          0.86175700       0.69646300       0.58472700
   174  H          0.13824300       0.19646300       0.91527300
   175  H          0.13824300       0.30353700       0.41527300
   176  H          0.86175700       0.80353700       0.08472700
