data_PIKQOR
_symmetry_space_group_name_H-M    'P1'
_symmetry_Int_Tables_number       1
loop_
_symmetry_equiv_pos_site_id
_symmetry_equiv_pos_as_xyz
1 x,y,z
_cell_length_a                   8.54355
_cell_length_b                   8.67245
_cell_length_c                   12.61088
_cell_angle_alpha                96.9302
_cell_angle_beta                 95.4302
_cell_angle_gamma                97.5722
loop_
_atom_site_label
_atom_site_type_symbol
_atom_site_fract_x
_atom_site_fract_y
_atom_site_fract_z
     1  I          0.23877014       0.72234813       0.59140290
     2  I          0.76122986       0.27765187       0.40859710
     3  B          0.07632000       0.82518000       0.24930160
     4  B          0.92368000       0.17482000       0.75069840
     5  H          0.05960000       0.80730000       0.16980000
     6  H          0.94040000       0.19270000       0.83020000
     7  H          0.14450000       0.75000000       0.27430000
     8  H          0.85550000       0.25000000       0.72570000
     9  N          0.15722170      -0.00067170       0.29017110
    10  N          0.84277830       0.00067170       0.70982890
    11  N          0.25979170       0.20781160       0.40196110
    12  N          0.74020830       0.79218840       0.59803890
    13  N          0.25888170       0.25728180       0.59302110
    14  N          0.74111830       0.74271820       0.40697890
    15  N          0.08680170       0.19763160       0.70350110
    16  N          0.91319830       0.80236840       0.29649890
    17  C          0.19542000       0.05685190       0.39366130
    18  C          0.80458000       0.94314810       0.60633870
    19  H          0.17940000      -0.00030000       0.45240000
    20  H          0.82060000       0.00030000       0.54760000
    21  C          0.20122000       0.11932000       0.23028130
    22  C          0.79878000       0.88068000       0.76971870
    23  C          0.26492000       0.25052000       0.29966130
    24  C          0.73508000       0.74948000       0.70033870
    25  C          0.18243000       0.09843000       0.11037150
    26  C          0.81757000       0.90157000       0.88962850
    27  H          0.21830000       0.19920000       0.08515000
    28  H          0.78170000       0.80080000       0.91485000
    29  H          0.07020000       0.06230000       0.08336000
    30  H          0.92980000       0.93770000       0.91664000
    31  H          0.24820000       0.01920000       0.08336000
    32  H          0.75180000       0.98080000       0.91664000
    33  C          0.32953000       0.41232000       0.28138170
    34  C          0.67047000       0.58768000       0.71861830
    35  H          0.44420000       0.43341000       0.30581700
    36  H          0.55580000       0.56659000       0.69418300
    37  H          0.27520000       0.48921600       0.32221600
    38  H          0.72480000       0.51078400       0.67778400
    39  H          0.31220000       0.42148000       0.20401600
    40  H          0.68780000       0.57852000       0.79598400
    41  C          0.32182000       0.31472000       0.50076140
    42  C          0.67818000       0.68528000       0.49923860
    43  H          0.43920000       0.32460000       0.51050000
    44  H          0.56080000       0.67540000       0.48950000
    45  H          0.29240000       0.42010000       0.49430000
    46  H          0.70760000       0.57990000       0.50570000
    47  C          0.11112000       0.26892000       0.61811130
    48  C          0.88888000       0.73108000       0.38188870
    49  H          0.03600000       0.32020000       0.58050000
    50  H          0.96400000       0.67980000       0.41950000
    51  C          0.33352000       0.17532000       0.66681130
    52  C          0.66648000       0.82468000       0.33318870
    53  C          0.22562000       0.13962000       0.73578130
    54  C          0.77438000       0.86038000       0.26421870
    55  C          0.49852000       0.14033000       0.66322000
    56  C          0.50148000       0.85967000       0.33678000
    57  H          0.57350000       0.23210000       0.69750000
    58  H          0.42650000       0.76790000       0.30250000
    59  H          0.51820000       0.11520000       0.58820000
    60  H          0.48180000       0.88480000       0.41180000
    61  H          0.51270000       0.05050000       0.70160000
    62  H          0.48730000       0.94950000       0.29840000
    63  C          0.24203000       0.05643000       0.83149160
    64  C          0.75797000       0.94357000       0.16850840
    65  H          0.35120000       0.03620000       0.84451100
    66  H          0.64880000       0.96380000       0.15548900
    67  H          0.17020000       0.95680000       0.81897000
    68  H          0.82980000       0.04320000       0.18103000
    69  H          0.21630000       0.12151700       0.89401300
    70  H          0.78370000       0.87848300       0.10598700
    71  C          0.91473000       0.41353000       0.12312000
    72  C          0.08527000       0.58647000       0.87688000
    73  H          0.92801500       0.34530000       0.06461700
    74  H          0.07198500       0.65470000       0.93538300
    75  H          0.91391200       0.36330000       0.18320000
    76  H          0.08608800       0.63670000       0.81680000
    77  H         -0.00280000       0.49520000       0.13420000
    78  H          0.00280000       0.50480000       0.86580000
    79  C          0.60694000       0.30434000       0.06873000
    80  C          0.39306000       0.69566000       0.93127000
    81  H          0.49630000       0.32176000       0.04320000
    82  H          0.50370000       0.67824000       0.95680000
    83  H          0.60430000       0.25020000       0.13481900
    84  H          0.39570000       0.74980000       0.86518100
    85  H          0.64920000       0.23720000       0.01020000
    86  H          0.35080000       0.76280000      -0.01020000
    87  S          0.73101700       0.48693600       0.09962500
    88  S          0.26898300       0.51306400       0.90037500
    89  O          0.73673000       0.56083000      -0.00192000
    90  O          0.26327000       0.43917000       0.00192000
