data_PILLON
_symmetry_space_group_name_H-M    'P1'
_symmetry_Int_Tables_number       1
loop_
_symmetry_equiv_pos_site_id
_symmetry_equiv_pos_as_xyz
1 x,y,z
_cell_length_a                   13.625712
_cell_length_b                   9.91149
_cell_length_c                   9.57798
_cell_angle_alpha                90.0
_cell_angle_beta                 106.8937
_cell_angle_gamma                90.0
loop_
_atom_site_label
_atom_site_type_symbol
_atom_site_fract_x
_atom_site_fract_y
_atom_site_fract_z
     1  H          0.71131600       0.68620000       0.21620000
     2  H          0.28868400       0.18620000       0.28380000
     3  H          0.28868400       0.31380000       0.78380000
     4  H          0.71131600       0.81380000       0.71620000
     5  H          0.86521800       0.31820000       0.06230000
     6  H          0.13478200       0.81820000       0.43770000
     7  H          0.13478200       0.68180000       0.93770000
     8  H          0.86521800       0.18180000       0.56230000
     9  H          0.78041700       0.70720000       0.02920000
    10  H          0.21958300       0.20720000       0.47080000
    11  H          0.21958300       0.29280000       0.97080000
    12  H          0.78041700       0.79280000       0.52920000
    13  H          0.79721900       0.30030000       0.25730000
    14  H          0.20278100       0.80030000       0.24270000
    15  H          0.20278100       0.69970000       0.74270000
    16  H          0.79721900       0.19970000       0.75730000
    17  H          0.90641800       0.71730000       0.92170000
    18  H          0.09358200       0.21730000       0.57830000
    19  H          0.09358200       0.28270000       0.07830000
    20  H          0.90641800       0.78270000       0.42170000
    21  H          0.92481900       0.66030000       0.79070000
    22  H          0.07518100       0.16030000       0.70930000
    23  H          0.07518100       0.33970000       0.20930000
    24  H          0.92481900       0.83970000       0.29070000
    25  O          0.67453130       0.58221170       0.42139180
    26  O          0.32546870       0.08221170       0.07860820
    27  O          0.32546870       0.41778830       0.57860820
    28  O          0.67453130       0.91778830       0.92139180
    29  O          0.88795110       0.42217140       0.83385850
    30  O          0.11204890       0.92217140       0.66614150
    31  O          0.11204890       0.57782860       0.16614150
    32  O          0.88795110       0.07782860       0.33385850
    33  O          0.70926160       0.36947180       0.43592000
    34  O          0.29073840       0.86947180       0.06408000
    35  O          0.29073840       0.63052820       0.56408000
    36  O          0.70926160       0.13052820       0.93592000
    37  N          0.90594130       0.64759170       0.86838810
    38  N          0.09405870       0.14759170       0.63161190
    39  N          0.09405870       0.35240830       0.13161190
    40  N          0.90594130       0.85240830       0.36838810
    41  C          0.83323150       0.51663170       0.02672000
    42  C          0.16676850       0.01663170       0.47328000
    43  C          0.16676850       0.48336830       0.97328000
    44  C          0.83323150       0.98336830       0.52672000
    45  N          0.70830140       0.48022170       0.37932000
    46  N          0.29169860       0.98022170       0.12068000
    47  N          0.29169860       0.51977830       0.62068000
    48  N          0.70830140       0.01977830       0.87932000
    49  C          0.74416140       0.61534190       0.18522000
    50  C          0.25583860       0.11534190       0.31478000
    51  C          0.25583860       0.38465810       0.81478000
    52  C          0.74416140       0.88465810       0.68522000
    53  C          0.87802150       0.52710180       0.90228000
    54  C          0.12197850       0.02710180       0.59772000
    55  C          0.12197850       0.47289820       0.09772000
    56  C          0.87802150       0.97289820       0.40228000
    57  C          0.78616140       0.62727190       0.07082000
    58  C          0.21383860       0.12727190       0.42918000
    59  C          0.21383860       0.37272810       0.92918000
    60  C          0.78616140       0.87272810       0.57082000
    61  C          0.75038160       0.49159180       0.25502000
    62  C          0.24961840      -0.00840820       0.24498000
    63  C          0.24961840       0.50840820       0.74498000
    64  C          0.75038160       0.00840820       0.75502000
    65  C          0.79453150       0.37875190       0.21192000
    66  C          0.20546850       0.87875190       0.28808000
    67  C          0.20546850       0.62124810       0.78808000
    68  C          0.79453150       0.12124810       0.71192000
    69  C          0.83571150       0.39208190       0.09622000
    70  C          0.16428850       0.89208190       0.40378000
    71  C          0.16428850       0.60791810       0.90378000
    72  C          0.83571150       0.10791810       0.59622000
    73  H          0.50311900       0.80130000       0.38430000
    74  H          0.49688100       0.30130000       0.11570000
    75  H          0.49688100       0.19870000       0.61570000
    76  H          0.50311900       0.69870000       0.88430000
    77  H          0.56451900       0.19330000       0.42130000
    78  H          0.43548100       0.69330000       0.07870000
    79  H          0.43548100       0.80670000       0.57870000
    80  H          0.56451900       0.30670000       0.92130000
    81  I          0.59914210      -0.01107886       0.20384814
    82  I          0.40085790       0.48892114       0.29615186
    83  I          0.40085790       0.01107886       0.79615186
    84  I          0.59914210       0.51107886       0.70384814
    85  C          0.54019170      -0.00448000       0.38322000
    86  C          0.45980830       0.49552000       0.11678000
    87  C          0.45980830       0.00448000       0.61678000
    88  C          0.54019170       0.50448000       0.88322000
    89  C          0.50252170       0.87882000       0.42852000
    90  C          0.49747830       0.37882000       0.07148000
    91  C          0.49747830       0.12118000       0.57148000
    92  C          0.50252170       0.62118000       0.92852000
    93  C          0.53773160       0.11702000       0.45402000
    94  C          0.46226840       0.61702000       0.04598000
    95  C          0.46226840       0.88298000       0.54598000
    96  C          0.53773160       0.38298000       0.95402000
    97  H          0.94220000       0.42640000       0.71460000
    98  H          0.05780000       0.92640000       0.78540000
    99  H          0.05780000       0.57360000       0.28540000
   100  H          0.94220000       0.07360000       0.21460000
   101  O          0.97680110       0.40650130       0.64179850
   102  O          0.02319890       0.90650130       0.85820150
   103  O          0.02319890       0.59349870       0.35820150
   104  O          0.97680110       0.09349870       0.14179850
   105  O          0.93453120       0.61982140       0.57262840
   106  O          0.06546880       0.11982140       0.92737160
   107  O          0.06546880       0.38017860       0.42737160
   108  O          0.93453120       0.88017860       0.07262840
   109  C          0.97378160       0.51144170       0.56048000
   110  C          0.02621840       0.01144170       0.93952000
   111  C          0.02621840       0.48855830       0.43952000
   112  C          0.97378160      -0.01144170       0.06048000
