data_PIMSAI
_symmetry_space_group_name_H-M    'P1'
_symmetry_Int_Tables_number       1
loop_
_symmetry_equiv_pos_site_id
_symmetry_equiv_pos_as_xyz
1 x,y,z
_cell_length_a                   9.05932
_cell_length_b                   12.17612
_cell_length_c                   12.55062
_cell_angle_alpha                74.49301
_cell_angle_beta                 89.57901
_cell_angle_gamma                84.48401
loop_
_atom_site_label
_atom_site_type_symbol
_atom_site_fract_x
_atom_site_fract_y
_atom_site_fract_z
     1  Cl         0.26810400       0.16224300       0.33056300
     2  Cl         0.73189600       0.83775700       0.66943700
     3  Cl         0.60008400       0.10598300       0.25758300
     4  Cl         0.39991600       0.89401700       0.74241700
     5  O          0.22476120       0.04832900       0.56137900
     6  O          0.77523880       0.95167100       0.43862100
     7  C          0.34948170       0.02573120       0.53324130
     8  C          0.65051830       0.97426880       0.46675870
     9  C          0.39952170       0.07434120       0.41819130
    10  C          0.60047830       0.92565880       0.58180870
    11  C          0.53833180       0.05119130       0.38824130
    12  C          0.46166820       0.94880870       0.61175870
    13  Cl         0.24573400       0.60452300       0.10583300
    14  Cl         0.75426600       0.39547700       0.89416700
    15  Cl         0.09833500       0.73870300       0.87119700
    16  Cl         0.90166500       0.26129700       0.12880300
    17  O          0.12980130       0.38435900       0.19195900
    18  O          0.87019870       0.61564100       0.80804100
    19  C          0.06983170       0.43742130       0.10538130
    20  C          0.93016830       0.56257870       0.89461870
    21  C          0.11265170       0.55214130       0.04287130
    22  C          0.88734830       0.44785870       0.95712870
    23  C          0.04998180       0.60840130       0.94578870
    24  C          0.95001820       0.39159870       0.05421130
    25  O          0.26562120       0.80643100       0.50338900
    26  O          0.73437880       0.19356900       0.49661100
    27  O          0.51062120       0.79634100       0.39709900
    28  O          0.48937880       0.20365900       0.60290100
    29  O          0.68477880       0.63424100       0.02793900
    30  O          0.31522120       0.36575900       0.97206100
    31  O          0.86939880       0.57481100       0.19584900
    32  O          0.13060120       0.42518900       0.80415100
    33  C          0.25302170       0.95280870       0.03245120
    34  C          0.74697830       0.04719130       0.96754880
    35  C          0.25053170       0.92123880       0.15840120
    36  C          0.74946830       0.07876120       0.84159880
    37  C          0.11964170       0.93012880       0.21616130
    38  C          0.88035830       0.06987120       0.78383870
    39  C          0.12297170       0.89291880       0.33177130
    40  C          0.87702830       0.10708120       0.66822870
    41  C          0.25301170       0.84631880       0.39046120
    42  C          0.74698830       0.15368120       0.60953880
    43  C          0.38556170       0.83920880       0.33251130
    44  C          0.61443830       0.16079120       0.66748870
    45  C          0.38258170       0.87609880       0.21794130
    46  C          0.61741830       0.12390120       0.78205870
    47  C          0.12943190       0.79589840       0.56220140
    48  C          0.87056810       0.20410160       0.43779860
    49  C          0.63988180       0.76567850       0.34108140
    50  C          0.36011820       0.23432150       0.65891860
    51  C          0.97227830       0.97596870       0.15740130
    52  C          0.02772170       0.02403130       0.84259870
    53  C          0.89395840       0.88899870       0.11630120
    54  C          0.10604160       0.11100130       0.88369880
    55  C          0.79128840       0.92194880       0.02828120
    56  C          0.20871160       0.07805120       0.97171880
    57  C          0.72122830       0.83721870      -0.00308130
    58  C          0.27877170       0.16278130       0.00308130
    59  C          0.74876840       0.72215870       0.05294120
    60  C          0.25123160       0.27784130       0.94705880
    61  C          0.84958840       0.68997880       0.14290120
    62  C          0.15041160       0.31002120       0.85709880
    63  C          0.92217830       0.77259870       0.17159120
    64  C          0.07782170       0.22740130       0.82840880
    65  C          0.57067810       0.66563860       0.94427860
    66  C          0.42932190       0.33436140       0.05572140
    67  C          0.93758000       0.54305860       0.30394130
    68  C          0.06242000       0.45694140       0.69605870
    69  H          0.35220000       0.93178400       0.01011500
    70  H          0.64780000       0.06821600      -0.01011500
    71  H          0.19320000       0.90468400       0.00521500
    72  H          0.80680000       0.09531600      -0.00521500
    73  H          0.03720000       0.90018500       0.36961500
    74  H          0.96280000       0.09981500       0.63038500
    75  H          0.47020000       0.86988600       0.17791400
    76  H          0.52980000       0.13011400       0.82208600
    77  H          0.15720000       0.75688300       0.63751800
    78  H          0.84280000       0.24311700       0.36248200
    79  H          0.07820000       0.86868200       0.55861600
    80  H          0.92180000       0.13131800       0.44138400
    81  H          0.06520000       0.75078300       0.53361700
    82  H          0.93480000       0.24921700       0.46638300
    83  H          0.62020000       0.70888300       0.30161600
    84  H          0.37980000       0.29111700       0.69838400
    85  H          0.71420000       0.73548300       0.39681700
    86  H          0.28580000       0.26451700       0.60318300
    87  H          0.67520000       0.83148300       0.28931600
    88  H          0.32480000       0.16851700       0.71068400
    89  H         -0.01331900       0.04101500       0.09481500
    90  H          0.01331900       0.95898500       0.90518500
    91  H          0.90680000       0.00171500       0.20831500
    92  H          0.09320000      -0.00171500       0.79168500
    93  H          0.65780000       0.85898500       0.93658500
    94  H          0.34220000       0.14101500       0.06341500
    95  H         -0.01120000       0.74998500       0.23191600
    96  H          0.01120000       0.25001500       0.76808400
    97  H          0.53080000       0.59578300       0.94038500
    98  H          0.46920000       0.40421700       0.05961500
    99  H          0.49280000       0.71628300       0.96178400
   100  H          0.50720000       0.28371700       0.03821600
   101  H          0.60780000       0.70088400       0.87338400
   102  H          0.39220000       0.29911600       0.12661600
   103  H          0.93280000       0.46278200       0.33301600
   104  H          0.06720000       0.53721800       0.66698400
   105  H          0.04120000       0.55508400       0.30221600
   106  H          0.95880000       0.44491600       0.69778400
   107  H          0.88580000       0.58218300       0.35261700
   108  H          0.11420000       0.41781700       0.64738300
   109  Cl         0.66333500       0.46706600       0.58622400
   110  Cl         0.33666500       0.53293400       0.41377600
   111  Cl         0.42590500       0.53086600       0.72420400
   112  Cl         0.57409500       0.46913400       0.27579600
   113  C          0.57042000       0.57978840       0.63426160
   114  C          0.42958000       0.42021160       0.36573840
   115  H          0.52620000       0.63638200       0.57081800
   116  H          0.47380000       0.36361800       0.42918200
   117  H          0.63920000       0.60748200       0.67701700
   118  H          0.36080000       0.39251800       0.32298300
