data_PINJII
_symmetry_space_group_name_H-M    'P1'
_symmetry_Int_Tables_number       1
loop_
_symmetry_equiv_pos_site_id
_symmetry_equiv_pos_as_xyz
1 x,y,z
_cell_length_a                   3.74643
_cell_length_b                   9.66486
_cell_length_c                   16.388213
_cell_angle_alpha                76.1426
_cell_angle_beta                 88.9486
_cell_angle_gamma                82.0405
loop_
_atom_site_label
_atom_site_type_symbol
_atom_site_fract_x
_atom_site_fract_y
_atom_site_fract_z
     1  F          0.14313000       0.04145110       0.90570700
     2  F          0.85687000       0.95854890       0.09429300
     3  O          0.57364000       0.54848120       0.89161700
     4  O          0.42636000       0.45151880       0.10838300
     5  N          0.45933000       0.38253130       0.82216800
     6  N          0.54067000       0.61746870       0.17783200
     7  N          0.37504000       0.34772140       0.96836800
     8  N          0.62496000       0.65227860       0.03163200
     9  H          0.38310000       0.37900000       0.01310000
    10  H          0.61690000       0.62100000       0.98690000
    11  N          0.32774000       0.20989140       0.75648900
    12  N          0.67226000       0.79010860       0.24351100
    13  H          0.38900000       0.26120000       0.70920000
    14  H          0.61100000       0.73880000       0.29080000
    15  H          0.25470000       0.12860000       0.75870000
    16  H          0.74530000       0.87140000       0.24130000
    17  C          0.34574000       0.25596160       0.82557100
    18  C          0.65426000       0.74403840       0.17442900
    19  C          0.24764000       0.17106160       0.90433100
    20  C          0.75236000       0.82893840       0.09566900
    21  C          0.47364000       0.43090160       0.89299900
    22  C          0.52636000       0.56909840       0.10700100
    23  C          0.26534000       0.21775170       0.97380100
    24  C          0.73466000       0.78224830       0.02619900
    25  H          0.20370000       0.16230000       0.02540000
    26  H          0.79630000       0.83770000       0.97460000
    27  O          0.81534000       0.66139130       0.52297700
    28  O          0.18466000       0.33860870       0.47702300
    29  N          0.68864000       0.51775130       0.64633800
    30  N          0.31136000       0.48224870       0.35366200
    31  H          0.67380000       0.50660000       0.69990000
    32  H          0.32620000       0.49340000       0.30010000
    33  N          0.60934000       0.40650150       0.60973900
    34  N          0.39066000       0.59349850       0.39026100
    35  H          0.82530000       0.37840000       0.58000000
    36  H          0.17470000       0.62160000       0.42000000
    37  H          0.40890000       0.45840000       0.56610000
    38  H          0.59110000       0.54160000       0.43390000
    39  N          0.03534000       0.96336150       0.71959100
    40  N          0.96466000       0.03663850       0.28040900
    41  C          0.86314000       0.74987150       0.64500900
    42  C          0.13686000       0.25012850       0.35499100
    43  C          0.78594000       0.63951160       0.59941900
    44  C          0.21406000       0.36048840       0.40058100
    45  C          0.96424000       0.71811170       0.72843100
    46  C          0.03576000       0.28188830       0.27156900
    47  H         -0.02520000       0.62480000       0.76140000
    48  H          0.02520000       0.37520000       0.23860000
    49  C          0.84605000       0.89130170       0.59960110
    50  C          0.15395000       0.10869830       0.40039890
    51  H          0.77750000       0.91730000       0.54310000
    52  H          0.22250000       0.08270000       0.45690000
    53  C          0.04955000       0.82752180       0.76234110
    54  C          0.95045000       0.17247820       0.23765890
    55  H          0.12130000       0.80450000       0.81860000
    56  H          0.87870000       0.19550000       0.18140000
    57  C          0.93216000      -0.00715810       0.63943130
    58  C          0.06784000       0.00715810       0.36056870
    59  H          0.91710000       0.08760000       0.60840000
    60  H          0.08290000       0.91240000       0.39160000
