data_PINPIP
_symmetry_space_group_name_H-M    'P1'
_symmetry_Int_Tables_number       1
loop_
_symmetry_equiv_pos_site_id
_symmetry_equiv_pos_as_xyz
1 x,y,z
_cell_length_a                   9.20795
_cell_length_b                   18.185011
_cell_length_c                   15.65361
_cell_angle_alpha                90.0
_cell_angle_beta                 93.9922
_cell_angle_gamma                90.0
loop_
_atom_site_label
_atom_site_type_symbol
_atom_site_fract_x
_atom_site_fract_y
_atom_site_fract_z
     1  Cl         0.09035600       0.14102300       0.41132300
     2  Cl         0.40964400       0.64102300       0.08867700
     3  Cl         0.90964400       0.85897700       0.58867700
     4  Cl         0.59035600       0.35897700       0.91132300
     5  Cl         0.92503300       0.13440300       0.03616300
     6  Cl         0.57496700       0.63440300       0.46383700
     7  Cl         0.07496700       0.86559700       0.96383700
     8  Cl         0.42503300       0.36559700       0.53616300
     9  Cl         0.74041400       0.04262300       0.37614400
    10  Cl         0.75958600       0.54262300       0.12385600
    11  Cl         0.25958600       0.95737700       0.62385600
    12  Cl         0.24041400       0.45737700       0.87614400
    13  Cl         0.81601300       0.20530300       0.24584400
    14  Cl         0.68398700       0.70530300       0.25415600
    15  Cl         0.18398700       0.79469700       0.75415600
    16  Cl         0.31601300       0.29469700       0.74584400
    17  Cl         0.20224700       0.20115300       0.20404400
    18  Cl         0.29775300       0.70115300       0.29595600
    19  Cl         0.79775300       0.79884700       0.79595600
    20  Cl         0.70224700       0.29884700       0.70404400
    21  Cl         0.25375600       0.03336300       0.07093400
    22  Cl         0.24624400       0.53336300       0.42906600
    23  Cl         0.74624400       0.96663700       0.92906600
    24  Cl         0.75375600       0.46663700       0.57093400
    25  Cl         0.36689600       0.03449300       0.30362400
    26  Cl         0.13310400       0.53449300       0.19637600
    27  Cl         0.63310400       0.96550700       0.69637600
    28  Cl         0.86689600       0.46550700       0.80362400
    29  Cl         0.08163700       0.93905700       0.41216400
    30  Cl         0.41836300       0.43905700       0.08783600
    31  Cl         0.91836300       0.06094300       0.58783600
    32  Cl         0.58163700       0.56094300       0.91216400
    33  Cl         0.17984700       0.87465700       0.19965400
    34  Cl         0.32015300       0.37465700       0.30034600
    35  Cl         0.82015300       0.12534300       0.80034600
    36  Cl         0.67984700       0.62534300       0.69965400
    37  Cl         0.80553300       0.87959700       0.24066400
    38  Cl         0.69446700       0.37959700       0.25933600
    39  Cl         0.19446700       0.12040300       0.75933600
    40  Cl         0.30553300       0.62040300       0.74066400
    41  Cl         0.64589400       0.03938300       0.14123400
    42  Cl         0.85410600       0.53938300       0.35876600
    43  Cl         0.35410600       0.96061700       0.85876600
    44  Cl         0.14589400       0.46061700       0.64123400
    45  C          0.96468000      -0.00418110       0.14358120
    46  C          0.53532000       0.49581890       0.35641880
    47  C          0.03532000       0.00418110       0.85641880
    48  C          0.46468000       0.50418110       0.64358120
    49  H          0.93970000       0.96958700       0.09471600
    50  H          0.56030000       0.46958700       0.40528400
    51  H          0.06030000       0.03041300       0.90528400
    52  H          0.43970000       0.53041300       0.59471600
    53  B          0.82648000       0.04218120       0.18802150
    54  B          0.67352000       0.54218120       0.31197850
    55  B          0.17352000       0.95781880       0.81197850
    56  B          0.32648000       0.45781880       0.68802150
    57  B          0.87498000       0.04202120       0.29995140
    58  B          0.62502000       0.54202120       0.20004860
    59  B          0.12502000       0.95797880       0.70004860
    60  B          0.37498000       0.45797880       0.79995140
    61  B          0.04512000       0.08917120       0.31645140
    62  B          0.45488000       0.58917120       0.18354860
    63  B          0.95488000       0.91082880       0.68354860
    64  B          0.54512000       0.41082880       0.81645140
    65  B          0.96567000       0.08975120       0.13589140
    66  B          0.53433000       0.58975120       0.36410860
    67  B          0.03433000       0.91024880       0.86410860
    68  B          0.46567000       0.41024880       0.63589140
    69  B          0.90568000       0.96236880       0.23802150
    70  B          0.59432000       0.46236880       0.26197850
    71  B          0.09432000       0.03763120       0.76197850
    72  B          0.40568000       0.53763120       0.73802150
    73  B          0.09412000       0.96004880       0.21639150
    74  B          0.40588000       0.46004880       0.28360850
    75  B          0.90588000       0.03995120       0.78360850
    76  B          0.59412000       0.53995120       0.71639150
    77  B          0.04122000       0.99098880       0.31765140
    78  B          0.45878000       0.49098880       0.18234860
    79  B          0.95878000       0.00901120       0.68234860
    80  B          0.54122000       0.50901120       0.81765140
    81  B          0.91198000       0.12117120       0.23650140
    82  B          0.58802000       0.62117120       0.26349860
    83  B          0.08802000       0.87882880       0.76349860
    84  B          0.41198000       0.37882880       0.73650140
    85  B          0.10152000       0.11890120       0.21517140
    86  B          0.39848000       0.61890120       0.28482860
    87  B          0.89848000       0.88109880       0.78482860
    88  B          0.60152000       0.38109880       0.71517140
    89  B          0.13092000       0.03876120       0.15334150
    90  B          0.36908000       0.53876120       0.34665850
    91  B          0.86908000       0.96123880       0.84665850
    92  B          0.63092000       0.46123880       0.65334150
    93  B          0.18092000       0.03829120       0.26512150
    94  B          0.31908000       0.53829120       0.23487850
    95  B          0.81908000       0.96170880       0.73487850
    96  B          0.68092000       0.46170880       0.76512150
    97  O          0.16802000       0.30652110       0.03284130
    98  O          0.33198000       0.80652110       0.46715870
    99  O          0.83198000       0.69347890       0.96715870
   100  O          0.66802000       0.19347890       0.53284130
   101  C          0.04963000       0.32462140      -0.00323180
   102  C          0.45037000       0.82462140       0.50323180
   103  C          0.95037000       0.67537860       0.00323180
   104  C          0.54963000       0.17537860       0.49676820
   105  C         -0.00303000       0.29413150       0.91306820
   106  C          0.50303000       0.79413150       0.58693180
   107  C          0.00303000       0.70586850       0.08693180
   108  C          0.49697000       0.20586850       0.41306820
   109  H          0.00679800       0.33128600       0.86848500
   110  H          0.49320200       0.83128600       0.63151500
   111  H         -0.00679800       0.66871400       0.13151500
   112  H          0.50679800       0.16871400       0.36848500
   113  H          0.89450900       0.28009300       0.91461500
   114  H          0.60549100       0.78009300       0.58538500
   115  H          0.10549100       0.71990700       0.08538500
   116  H          0.39450900       0.21990700       0.41461500
   117  H          0.05489800       0.25073500       0.90043000
   118  H          0.44510200       0.75073500       0.59957000
   119  H          0.94510200       0.74926500       0.09957000
   120  H          0.55489800       0.24926500       0.40043000
   121  C          0.96076000       0.37892000       0.03993000
   122  C          0.53924000       0.87892000       0.46007000
   123  C          0.03924000       0.62108000       0.96007000
   124  C          0.46076000       0.12108000       0.53993000
   125  H          0.89500200       0.35321000       0.07649100
   126  H          0.60499800       0.85321000       0.42350900
   127  H          0.10499800       0.64679000       0.92350900
   128  H          0.39500200       0.14679000       0.57649100
   129  H          0.90351100       0.40786000      -0.00313700
   130  H          0.59648900       0.90786000       0.50313700
   131  H          0.09648900       0.59214000       0.00313700
   132  H          0.40351100       0.09214000       0.49686300
   133  H          0.02475200       0.41165700       0.07511400
   134  H          0.47524800       0.91165700       0.42488600
   135  H          0.97524800       0.58834300       0.92488600
   136  H          0.52475200       0.08834300       0.57511400
   137  O          0.30952000       0.21598120       0.96036860
   138  O          0.19048000       0.71598120       0.53963140
   139  O          0.69048000       0.78401880       0.03963140
   140  O          0.80952000       0.28401880       0.46036860
   141  C          0.50193000       0.23085160       0.06821180
   142  C         -0.00193000       0.73085160       0.43178820
   143  C          0.49807000       0.76914840       0.93178820
   144  C          0.00193000       0.26914840       0.56821180
   145  H          0.44807600       0.27463500       0.08425600
   146  H          0.05192400       0.77463500       0.41574400
   147  H          0.55192400       0.72536500       0.91574400
   148  H          0.94807600       0.22536500       0.58425600
   149  H          0.60341500       0.24417100       0.06077900
   150  H          0.89658500       0.74417100       0.43922100
   151  H          0.39658500       0.75582900       0.93922100
   152  H          0.10341500       0.25582900       0.56077900
   153  H          0.49868600       0.19371800       0.11340800
   154  H          0.00131400       0.69371800       0.38659200
   155  H          0.50131400       0.80628200       0.88659200
   156  H         -0.00131400       0.30628200       0.61340800
   157  C          0.43533000       0.20084140       0.98734830
   158  C          0.06467000       0.70084140       0.51265170
   159  C          0.56467000       0.79915860       0.01265170
   160  C          0.93533000       0.29915860       0.48734830
   161  C          0.51903000       0.15046190       0.93588000
   162  C          0.98097000       0.65046190       0.56412000
   163  C          0.48097000       0.84953810       0.06412000
   164  C          0.01903000       0.34953810       0.43588000
   165  H          0.45251800       0.12481500       0.89431500
   166  H          0.04748200       0.62481500       0.60568500
   167  H          0.54748200       0.87518500       0.10568500
   168  H          0.95251800       0.37518500       0.39431500
   169  H          0.56993600       0.11442200       0.97368100
   170  H          0.93006400       0.61442200       0.52631900
   171  H          0.43006400       0.88557800       0.02631900
   172  H          0.06993600       0.38557800       0.47368100
   173  H          0.59010100       0.17858900       0.90555000
   174  H          0.90989900       0.67858900       0.59445000
   175  H          0.40989900       0.82141100       0.09445000
   176  H          0.09010100       0.32141100       0.40555000
   177  H          0.24750000       0.26030000      -0.00430000
   178  H          0.25250000       0.76030000       0.50430000
   179  H          0.75250000       0.73970000       0.00430000
   180  H          0.74750000       0.23970000       0.49570000
