data_PIRNOV
_symmetry_space_group_name_H-M    'P1'
_symmetry_Int_Tables_number       1
loop_
_symmetry_equiv_pos_site_id
_symmetry_equiv_pos_as_xyz
1 x,y,z
_cell_length_a                   3.81986
_cell_length_b                   7.50119
_cell_length_c                   21.8143
_cell_angle_alpha                98.4358
_cell_angle_beta                 93.1698
_cell_angle_gamma                97.4747
loop_
_atom_site_label
_atom_site_type_symbol
_atom_site_fract_x
_atom_site_fract_y
_atom_site_fract_z
     1  F          0.64964000       0.86156160       0.30427600
     2  F          0.35036000       0.13843840       0.69572400
     3  F          0.40384000       0.27614160       0.35931600
     4  F          0.59616000       0.72385840       0.64068400
     5  O          0.82214000       0.34682000       0.26956700
     6  O          0.17786000       0.65318000       0.73043300
     7  F          0.20674000       0.78611190       0.49494600
     8  F          0.79326000       0.21388810       0.50505400
     9  O          0.59235000       0.54622000       0.21820700
    10  O          0.40765000       0.45378000       0.78179300
    11  C          0.53586000       0.56373000       0.32717100
    12  C          0.46414000       0.43627000       0.67282900
    13  C          0.42906000       0.82943000       0.39956100
    14  C          0.57094000       0.17057000       0.60043900
    15  C          0.53386000       0.74963000       0.34391100
    16  C          0.46614000       0.25037000       0.65608900
    17  C          0.30196000       0.52813000       0.42718110
    18  C          0.69804000       0.47187000       0.57281890
    19  C          0.65506000       0.48273000       0.26555100
    20  C          0.34494000       0.51727000       0.73444900
    21  C          0.41686000       0.45813000       0.37125100
    22  C          0.58314000       0.54187000       0.62874900
    23  C          0.31396000       0.71423000       0.43988100
    24  C          0.68604000       0.28577000       0.56011900
    25  H          0.43470000       0.96240000       0.40911100
    26  H          0.56530000       0.03760000       0.59088900
    27  H          0.21970000       0.44940000       0.45391200
    28  H          0.78030000       0.55060000       0.54608800
    29  H          0.92880000       0.28140000       0.22171500
    30  H          0.07120000       0.71860000       0.77828500
    31  O          0.32854000       0.71764810       0.00370700
    32  O          0.67146000       0.28235190      -0.00370700
    33  N          0.04675000       0.15632000       0.18037800
    34  N          0.95325000       0.84368000       0.81962200
    35  N          0.48775000       0.57828000       0.08400900
    36  N          0.51225000       0.42172000       0.91599100
    37  C          0.36486000       0.71447000       0.06008100
    38  C          0.63514000       0.28553000       0.93991900
    39  C          0.22866000       0.86187000       0.16700100
    40  C          0.77134000       0.13813000       0.83299900
    41  C          0.26436000       0.86977000       0.10479100
    42  C          0.73564000       0.13023000       0.89520900
    43  C          0.19776000       0.02553000       0.08124100
    44  C          0.80224000       0.97447000       0.91875900
    45  C          0.12086000       0.00853000       0.20346110
    46  C          0.87914000      -0.00853000       0.79653890
    47  C          0.08576000       0.16543000       0.12020100
    48  C          0.91424000       0.83457000       0.87979900
    49  H          0.23360000       0.03730000       0.03831000
    50  H          0.76640000       0.96270000       0.96169000
    51  H          0.08460000       0.01430000       0.24751100
    52  H          0.91540000      -0.01430000       0.75248900
    53  H          0.26660000       0.75870000       0.18571000
    54  H          0.73340000       0.24130000       0.81429000
    55  H          0.55370000       0.48470000       0.05691100
    56  H          0.44630000       0.51530000       0.94308900
    57  H          0.02170000       0.28040000       0.10531200
    58  H         -0.02170000       0.71960000       0.89468800
    59  H          0.52490000       0.58360000       0.12731600
    60  H          0.47510000       0.41640000       0.87268400
