data_PIRRAL
_symmetry_space_group_name_H-M    'P1'
_symmetry_Int_Tables_number       1
loop_
_symmetry_equiv_pos_site_id
_symmetry_equiv_pos_as_xyz
1 x,y,z
_cell_length_a                   3.73575
_cell_length_b                   15.6252
_cell_length_c                   10.926014
_cell_angle_alpha                90.0
_cell_angle_beta                 93.6147
_cell_angle_gamma                90.0
loop_
_atom_site_label
_atom_site_type_symbol
_atom_site_fract_x
_atom_site_fract_y
_atom_site_fract_z
     1  C          0.53476000       0.09212150       0.40892000
     2  C          0.53476000       0.90787850       0.90892000
     3  C          0.46896000       0.08060160       0.28342000
     4  C          0.46896000       0.91939840       0.78342000
     5  C          0.45556000       0.17091150       0.46032000
     6  C          0.45556000       0.82908850       0.96032000
     7  C          0.31086000       0.23479150       0.38472000
     8  C          0.31086000       0.76520850       0.88472000
     9  C          0.69886000       0.02258150       0.49012000
    10  C          0.69886000       0.97741850      -0.00988000
    11  C          0.32887000       0.14820160       0.21422000
    12  C          0.32887000       0.85179840       0.71422000
    13  N          0.25026000       0.22364120       0.26334190
    14  N          0.25026000       0.77635880       0.76334190
    15  N          0.65207000       0.94291860       0.44982000
    16  N          0.65207000       0.05708140       0.94982000
    17  O          0.87285000       0.04053120       0.58633160
    18  O          0.87285000       0.95946880       0.08633160
    19  H          0.47990000       0.18220000       0.54530000
    20  H          0.47990000       0.81780000       0.04530000
    21  H          0.51710000       0.92880000       0.38330000
    22  H          0.51710000       0.07120000       0.88330000
    23  H          0.27090000       0.14431900       0.12830000
    24  H          0.27090000       0.85568100       0.62830000
    25  H          0.53790000       0.02981900       0.24730000
    26  H          0.53790000       0.97018100       0.74730000
    27  H          0.76290000       0.90180000       0.48930000
    28  H          0.76290000       0.09820000      -0.01070000
    29  H          0.24790000       0.29220000       0.41830000
    30  H          0.24790000       0.70780000       0.91830000
    31  C          0.55027000       0.50349170       0.23702000
    32  C          0.55027000       0.49650830       0.73702000
    33  C          0.62016000       0.65236160       0.29932000
    34  C          0.62016000       0.34763840       0.79932000
    35  C          0.78846000       0.62586150       0.41052000
    36  C          0.78846000       0.37413850       0.91052000
    37  C          0.83866000       0.53921160       0.43642000
    38  C          0.83866000       0.46078840       0.93642000
    39  C          0.91786000       0.69241150       0.50272000
    40  C          0.91786000       0.30758850       0.00272000
    41  C          0.50396000       0.59062160       0.21732000
    42  C          0.50396000       0.40937840       0.71732000
    43  C          0.72027000       0.48131160       0.34782000
    44  C          0.72027000       0.51868840       0.84782000
    45  O          0.91945000       0.76839110       0.47507180
    46  O          0.91945000       0.23160890       0.97507180
    47  O          0.02455000       0.66164120       0.60911160
    48  O          0.02455000       0.33835880       0.10911160
    49  F          0.33544000       0.61528100       0.10919140
    50  F          0.33544000       0.38471900       0.60919140
    51  F          0.77334000       0.39685900       0.37078150
    52  F          0.77334000       0.60314100       0.87078150
    53  H          0.58980000       0.71320000       0.28330000
    54  H          0.58980000       0.28680000       0.78330000
    55  H          0.46780000       0.46541800       0.18030000
    56  H          0.46780000       0.53458200       0.68030000
    57  H          0.09411000       0.70930000       0.67040000
    58  H          0.09411000       0.29070000       0.17040000
    59  H          0.95690000       0.51920000       0.50530000
    60  H          0.95690000       0.48080000       0.00530000
    61  O          0.22436000       0.85193130       0.26112000
    62  O          0.22436000       0.14806870       0.76112000
    63  H          0.08110000       0.88120000       0.21930000
    64  H          0.08110000       0.11880000       0.71930000
    65  H          0.10512000       0.83030000       0.31240000
    66  H          0.10512000       0.16970000       0.81240000
