data_PIRSOB
_symmetry_space_group_name_H-M    'P1'
_symmetry_Int_Tables_number       1
loop_
_symmetry_equiv_pos_site_id
_symmetry_equiv_pos_as_xyz
1 x,y,z
_cell_length_a                   7.172912
_cell_length_b                   8.584611
_cell_length_c                   9.959414
_cell_angle_alpha                72.89911
_cell_angle_beta                 74.19212
_cell_angle_gamma                77.57812
loop_
_atom_site_label
_atom_site_type_symbol
_atom_site_fract_x
_atom_site_fract_y
_atom_site_fract_z
     1  B          0.92831000       0.60811000       0.60157000
     2  B          0.07169000       0.39189000       0.39843000
     3  Br         0.88838880       0.75564100       0.72094800
     4  Br         0.11161120       0.24435900       0.27905200
     5  C          0.00498000       0.42328000       0.65886000
     6  C         -0.00498000       0.57672000       0.34114000
     7  C          0.09248000       0.32208000       0.55976000
     8  C          0.90752000       0.67792000       0.44024000
     9  C          0.18358000       0.16468000       0.61207000
    10  C          0.81642000       0.83532000       0.38793000
    11  C          0.18849000       0.09768000       0.75647000
    12  C          0.81151000       0.90232000       0.24353000
    13  C          0.09799000       0.19218000       0.85266000
    14  C          0.90201000       0.80782000       0.14734000
    15  C          0.00639000       0.34909000       0.80506000
    16  C         -0.00639000       0.65091000       0.19494000
    17  F          0.28086000       0.06485000       0.52544000
    18  F          0.71914000       0.93515000       0.47456000
    19  F          0.28076000       0.94675000       0.80094000
    20  F          0.71924000       0.05325000       0.19906000
    21  F          0.10006000       0.12995000      -0.00716000
    22  F          0.89994000       0.87005000       0.00716000
    23  F          0.91875000       0.42975000       0.90894000
    24  F          0.08125000       0.57025000       0.09106000
    25  C          0.58968000       0.35928000       0.45087000
    26  C          0.41032000       0.64072000       0.54913000
    27  H          0.65021600       0.26384400       0.41694700
    28  H          0.34978400       0.73615600       0.58305300
    29  C          0.56188000       0.35158000       0.59626000
    30  C          0.43812000       0.64842000       0.40374000
    31  C          0.61939000       0.20609000       0.69758000
    32  C          0.38061000       0.79391000       0.30242000
    33  H          0.68156000       0.10966400       0.66568100
    34  H          0.31844000       0.89033600       0.33431900
    35  C          0.58641000       0.20201000       0.84098000
    36  C          0.41359000       0.79799000       0.15902000
    37  H          0.62685500       0.10345000       0.90685800
    38  H          0.37314500       0.89655000       0.09314200
    39  C          0.49261000       0.34391100       0.89127000
    40  C          0.50739000       0.65608900       0.10873000
    41  H          0.46833900       0.33904400      -0.00912400
    42  H          0.53166100       0.66095600       0.00912400
    43  C          0.43779000       0.48491000       0.79927000
    44  C          0.56221000       0.51509000       0.20073000
    45  H          0.37700800       0.57925700       0.83458900
    46  H          0.62299200       0.42074300       0.16541100
    47  C          0.46938000       0.49608000       0.64686000
    48  C          0.53062000       0.50392000       0.35314000
