data_PIRXUL
_symmetry_space_group_name_H-M    'P1'
_symmetry_Int_Tables_number       1
loop_
_symmetry_equiv_pos_site_id
_symmetry_equiv_pos_as_xyz
1 x,y,z
_cell_length_a                   7.65311
_cell_length_b                   13.219216
_cell_length_c                   16.1482
_cell_angle_alpha                90.0
_cell_angle_beta                 90.0
_cell_angle_gamma                90.0
loop_
_atom_site_label
_atom_site_type_symbol
_atom_site_fract_x
_atom_site_fract_y
_atom_site_fract_z
     1  H          0.81050000       0.67830000       0.25911300
     2  H          0.68950000       0.32170000       0.75911300
     3  H          0.18950000       0.17830000       0.24088700
     4  H          0.31050000       0.82170000       0.74088700
     5  H          0.70050000       0.65930000       0.18520000
     6  H          0.79950000       0.34070000       0.68520000
     7  H          0.29950000       0.15930000       0.31480000
     8  H          0.20050000       0.84070000       0.81480000
     9  O          0.96208000       0.62984150       0.08724100
    10  O          0.53792000       0.37015850       0.58724100
    11  O          0.03792000       0.12984150       0.41275900
    12  O          0.46208000       0.87015850       0.91275900
    13  C          0.11703000       0.64114170       0.21545140
    14  C          0.38297000       0.35885830       0.71545140
    15  C          0.88297000       0.14114170       0.28454860
    16  C          0.61703000       0.85885830       0.78454860
    17  N          0.43043000       0.65609170       0.21639130
    18  N          0.06957000       0.34390830       0.71639130
    19  N          0.56957000       0.15609170       0.28360870
    20  N          0.93043000       0.84390830       0.78360870
    21  C          0.95497000       0.64231170       0.16412140
    22  C          0.54503000       0.35768830       0.66412140
    23  C          0.04503000       0.14231170       0.33587860
    24  C          0.45497000       0.85768830       0.83587860
    25  N          0.80437000       0.65702170       0.20406140
    26  N          0.69563000       0.34297830       0.70406140
    27  N          0.19563000       0.15702170       0.29593860
    28  N          0.30437000       0.84297830       0.79593860
    29  C          0.11673000       0.62836190       0.30164140
    30  C          0.38327000       0.37163810       0.80164140
    31  C          0.88327000       0.12836190       0.19835860
    32  C          0.61673000       0.87163810       0.69835860
    33  H          0.01200000       0.61940000       0.33000000
    34  H          0.48800000       0.38060000       0.83000000
    35  H         -0.01200000       0.11940000       0.17000000
    36  H          0.51200000       0.88060000       0.67000000
    37  C          0.42484000       0.64342000       0.29903160
    38  C          0.07516000       0.35658000       0.79903160
    39  C          0.57516000       0.14342000       0.20096840
    40  C          0.92484000       0.85658000       0.70096840
    41  H          0.52990000       0.64420000       0.32790000
    42  H          0.97010000       0.35580000       0.82790000
    43  H          0.47010000       0.14420000       0.17210000
    44  H          0.02990000       0.85580000       0.67210000
    45  C          0.27313000       0.62922000       0.34380150
    46  C          0.22687000       0.37078000       0.84380150
    47  C          0.72687000       0.12922000       0.15619850
    48  C          0.77313000       0.87078000       0.65619850
    49  H          0.27640000       0.62040000       0.40090000
    50  H          0.22360000       0.37960000       0.90090000
    51  H          0.72360000       0.12040000       0.09910000
    52  H          0.77640000       0.87960000       0.59910000
    53  C          0.27893000       0.65377180       0.17601140
    54  C          0.22107000       0.34622820       0.67601140
    55  C          0.72107000       0.15377180       0.32398860
    56  C          0.77893000       0.84622820       0.82398860
    57  H          0.28040000       0.66090000       0.11870000
    58  H          0.21960000       0.33910000       0.61870000
    59  H          0.71960000       0.16090000       0.38130000
    60  H          0.78040000       0.83910000       0.88130000
    61  H          0.09050000       0.76730000       0.01120000
    62  H          0.40950000       0.23270000       0.51120000
    63  H          0.90950000       0.26730000       0.48880000
    64  H          0.59050000       0.73270000       0.98880000
    65  H          0.22260000       0.83830000       0.97580000
    66  H          0.27740000       0.16170000       0.47580000
    67  H          0.77740000       0.33830000       0.52420000
    68  H          0.72260000       0.66170000       0.02420000
    69  H          0.91960000       0.97531400       0.44721700
    70  H          0.58040000       0.02468600       0.94721700
    71  H          0.08040000       0.47531400       0.05278300
    72  H          0.41960000       0.52468600       0.55278300
    73  H          0.31530000       0.89730000       0.42220000
    74  H          0.18470000       0.10270000       0.92220000
    75  H          0.68470000       0.39730000       0.07780000
    76  H          0.81530000       0.60270000       0.57780000
    77  S          0.01096700       0.90436500       0.04541300
    78  S          0.48903300       0.09563500       0.54541300
    79  S         -0.01096700       0.40436500       0.45458700
    80  S          0.51096700       0.59563500       0.95458700
    81  S          0.82521200       0.86518400       0.36854300
    82  S          0.67478800       0.13481600       0.86854300
    83  S          0.17478800       0.36518400       0.13145700
    84  S          0.32521200       0.63481600       0.63145700
    85  Cl         0.42358800       0.91277500       0.10733300
    86  Cl         0.07641200       0.08722500       0.60733300
    87  Cl         0.57641200       0.41277500       0.39266700
    88  Cl         0.92358800       0.58722500       0.89266700
    89  O          0.79987000       0.75883130       0.38361100
    90  O          0.70013000       0.24116870       0.88361100
    91  O          0.20013000       0.25883130       0.11638900
    92  O          0.29987000       0.74116870       0.61638900
    93  O          0.06682000       0.00198140       0.01633100
    94  O          0.43318000      -0.00198140       0.51633100
    95  O          0.93318000       0.50198140       0.48366900
    96  O          0.56682000       0.49801860       0.98366900
    97  C         -0.00923000       0.87943160       0.29444130
    98  C          0.50923000       0.12056840       0.79444130
    99  C          0.00923000       0.37943160       0.20555870
   100  C          0.49077000       0.62056840       0.70555870
   101  C          0.25203000       0.90350170       0.17734130
   102  C          0.24797000       0.09649830       0.67734130
   103  C          0.74797000       0.40350170       0.32265870
   104  C          0.75203000       0.59649830       0.82265870
   105  O          0.67658000       0.92516140       0.34658100
   106  O          0.82342000       0.07483860       0.84658100
   107  O          0.32342000       0.42516140       0.15341900
   108  O          0.17658000       0.57483860       0.65341900
   109  C          0.29653000       0.90243180       0.25956140
   110  C          0.20347000       0.09756820       0.75956140
   111  C          0.70347000       0.40243180       0.24043860
   112  C          0.79653000       0.59756820       0.74043860
   113  H          0.41260000       0.91070000       0.27500000
   114  H          0.08740000       0.08930000       0.77500000
   115  H          0.58740000       0.41070000       0.22500000
   116  H          0.91260000       0.58930000       0.72500000
   117  N          0.91657000       0.91306160       0.45132120
   118  N          0.58343000       0.08693840       0.95132120
   119  N          0.08343000       0.41306160       0.04867880
   120  N          0.41657000       0.58693840       0.54867880
   121  O          0.82798000       0.88010150       0.04411100
   122  O          0.67202000       0.11989850       0.54411100
   123  O          0.17202000       0.38010150       0.45588900
   124  O          0.32798000       0.61989850       0.95588900
   125  C          0.94707000       0.88397160       0.21010130
   126  C          0.55293000       0.11602840       0.71010130
   127  C          0.05293000       0.38397160       0.28989870
   128  C          0.44707000       0.61602840       0.78989870
   129  H          0.83070000       0.87970000       0.19400000
   130  H          0.66930000       0.12030000       0.69400000
   131  H          0.16930000       0.37970000       0.30600000
   132  H          0.33070000       0.62030000       0.80600000
   133  C          0.16683000       0.88884160       0.32104130
   134  C          0.33317000       0.11115840       0.82104130
   135  C          0.83317000       0.38884160       0.17895870
   136  C          0.66683000       0.61115840       0.67895870
   137  C          0.07663000       0.89481170       0.15076130
   138  C          0.42337000       0.10518830       0.65076130
   139  C          0.92337000       0.39481170       0.34923870
   140  C          0.57663000       0.60518830       0.84923870
   141  N          0.21313000       0.88665170       0.40275120
   142  N          0.28687000       0.11334830       0.90275120
   143  N          0.78687000       0.38665170       0.09724880
   144  N          0.71313000       0.61334830       0.59724880
   145  C          0.08823000       0.86792000       0.46811130
   146  C          0.41177000       0.13208000       0.96811130
   147  C          0.91177000       0.36792000       0.03188870
   148  C          0.58823000       0.63208000       0.53188870
   149  H          0.13340000       0.89520000       0.51960000
   150  H          0.36660000       0.10480000       0.01960000
   151  H          0.86660000       0.39520000       0.98040000
   152  H          0.63340000       0.60480000       0.48040000
   153  H          0.07440000       0.79550000       0.47510000
   154  H          0.42560000       0.20450000       0.97510000
   155  H          0.92560000       0.29550000       0.02490000
   156  H          0.57440000       0.70450000       0.52490000
   157  N          0.11153000       0.82098190       0.99115870
   158  N          0.38847000       0.17901810       0.49115870
   159  N          0.88847000       0.32098190       0.50884130
   160  N          0.61153000       0.67901810       0.00884130
