data_PIRXIZ
_symmetry_space_group_name_H-M    'P1'
_symmetry_Int_Tables_number       1
loop_
_symmetry_equiv_pos_site_id
_symmetry_equiv_pos_as_xyz
1 x,y,z
_cell_length_a                   7.60552
_cell_length_b                   16.01574
_cell_length_c                   16.44764
_cell_angle_alpha                73.1562
_cell_angle_beta                 85.5402
_cell_angle_gamma                89.56201
loop_
_atom_site_label
_atom_site_type_symbol
_atom_site_fract_x
_atom_site_fract_y
_atom_site_fract_z
     1  O          0.70311140       0.39418600       0.26256700
     2  O          0.29688860       0.60581400       0.73743300
     3  O          0.40686140       0.40691700       0.37024700
     4  O          0.59313860       0.59308300       0.62975300
     5  O          0.33487140       0.57182700       0.39547700
     6  O          0.66512860       0.42817300       0.60452300
     7  O          0.62524140       0.68320700       0.37789700
     8  O          0.37475860       0.31679300       0.62210300
     9  O          0.88839130       0.67812700       0.25440700
    10  O          0.11160870       0.32187300       0.74559300
    11  O          0.96446140       0.52168700       0.21671700
    12  O          0.03553860       0.47831300       0.78328300
    13  C          0.60152000       0.31942100       0.31118100
    14  C          0.39848000       0.68057900       0.68881900
    15  H          0.64770000       0.29550000       0.36780000
    16  H          0.35230000       0.70450000       0.63220000
    17  H          0.60850000       0.27360000       0.28160000
    18  H          0.39150000       0.72640000       0.71840000
    19  C          0.41512000       0.34646100       0.32111110
    20  C          0.58488000       0.65353900       0.67888890
    21  H          0.37180000       0.37410000       0.26440000
    22  H          0.62820000       0.62590000       0.73560000
    23  H          0.33950000       0.29470000       0.35020000
    24  H          0.66050000       0.70530000       0.64980000
    25  C          0.23302000       0.43650120       0.38119140
    26  C          0.76698000       0.56349880       0.61880860
    27  H          0.15240000       0.38610000       0.40760000
    28  H          0.84760000       0.61390000       0.59240000
    29  H          0.19160000       0.46840000       0.32510000
    30  H          0.80840000       0.53160000       0.67490000
    31  C          0.23222000       0.49527120       0.43688130
    32  C          0.76778000       0.50472880       0.56311870
    33  H          0.10950000       0.51160000       0.44960000
    34  H          0.89050000       0.48840000       0.55040000
    35  H          0.28120000       0.46440000       0.49140000
    36  H          0.71880000       0.53560000       0.50860000
    37  C          0.34882000       0.62711120       0.44900110
    38  C          0.65118000       0.37288880       0.55099890
    39  H          0.40830000       0.59590000       0.50040000
    40  H          0.59170000       0.40410000       0.49960000
    41  H          0.22960000       0.64320000       0.46760000
    42  H          0.77040000       0.35680000       0.53240000
    43  C          0.45222000       0.70760120       0.40082120
    44  C          0.54778000       0.29239880       0.59917880
    45  H          0.39380000       0.73840000       0.34890000
    46  H          0.60620000       0.26160000       0.65110000
    47  H          0.45840000       0.74750000       0.43660000
    48  H          0.54160000       0.25250000       0.56340000
    49  C          0.73632000       0.75782110       0.33862120
    50  C          0.26368000       0.24217890       0.66137880
    51  H          0.75040000       0.79180000       0.37940000
    52  H          0.24960000       0.20820000       0.62060000
    53  H          0.68230000       0.79590000       0.28840000
    54  H          0.31770000       0.20410000       0.71160000
    55  C          0.91212000       0.72813110       0.31175110
    56  C          0.08788000       0.27186890       0.68824890
    57  H         -0.01030000       0.77930000       0.28340000
    58  H          0.01030000       0.22070000       0.71660000
    59  H          0.96840000       0.69220000       0.36230000
    60  H          0.03160000       0.30780000       0.63770000
    61  C          0.05122000       0.66551110       0.21064120
    62  C          0.94878000       0.33448890       0.78935880
    63  H          0.13930000       0.64140000       0.25220000
    64  H          0.86070000       0.35860000       0.74780000
    65  H          0.09720000       0.72210000       0.17230000
    66  H          0.90280000       0.27790000       0.82770000
    67  C          0.02142000       0.60366110       0.15975120
    68  C          0.97858000       0.39633890       0.84024880
    69  H          0.93070000       0.62690000       0.11930000
    70  H          0.06930000       0.37310000       0.88070000
    71  H          0.13210000       0.59670000       0.12660000
    72  H          0.86790000       0.40330000       0.87340000
    73  C          0.96252000       0.45348110       0.17689110
    74  C          0.03748000       0.54651890       0.82310890
    75  H          0.08440000       0.44090000       0.15850000
    76  H          0.91560000       0.55910000       0.84150000
    77  H          0.89410000       0.47150000       0.12600000
    78  H          0.10590000       0.52850000       0.87400000
    79  C          0.87972000       0.37377100       0.23964110
    80  C          0.12028000       0.62622900       0.76035890
    81  H          0.87950000       0.32500000       0.21390000
    82  H          0.12050000       0.67500000       0.78610000
    83  H          0.94730000       0.35600000       0.29080000
    84  H          0.05270000       0.64400000       0.70920000
    85  O          0.36402000       0.68524100       0.88643200
    86  O          0.63598000       0.31475900       0.11356800
    87  O          0.28934180       0.80021800       0.93154200
    88  O          0.71065820       0.19978200       0.06845800
    89  H          0.24730000       0.81741500       0.88158500
    90  H          0.75270000       0.18258500       0.11841500
    91  N          0.60982180       0.56401900       0.26723800
    92  N          0.39017820       0.43598100       0.73276200
    93  H          0.64220000       0.50621300       0.27081100
    94  H          0.35780000       0.49378700       0.72918900
    95  H          0.52430000       0.56261300       0.31431400
    96  H          0.47570000       0.43738700       0.68568600
    97  H          0.70630000       0.59711300       0.27381300
    98  H          0.29370000       0.40288700       0.72618700
    99  C          0.42739190       0.68403100       0.02546900
   100  C          0.57260810       0.31596900       0.97453100
   101  C          0.47102000       0.59662100       0.04806100
   102  C          0.52898000       0.40337900       0.95193900
   103  H          0.46120000       0.56420000       0.00850000
   104  H          0.53880000       0.43580000      -0.00850000
   105  C          0.52862000       0.55583100       0.12741100
   106  C          0.47138000       0.44416900       0.87258900
   107  H          0.55590000       0.49560000       0.14310000
   108  H          0.44410000       0.50440000       0.85690000
   109  C          0.54573180       0.60465900       0.18336900
   110  C          0.45426820       0.39534100       0.81663100
   111  C          0.50679190       0.69238900       0.16142900
   112  C          0.49320810       0.30761100       0.83857100
   113  H          0.52180000       0.72530000       0.20010000
   114  H          0.47820000       0.27470000       0.79990000
   115  C          0.44562000       0.73183100       0.08238100
   116  C          0.55438000       0.26816900       0.91761900
   117  H          0.41600000       0.79180000       0.06720000
   118  H          0.58400000       0.20820000       0.93280000
   119  C          0.35782000       0.72278110       0.94017900
   120  C          0.64218000       0.27721890       0.05982100
   121  O         -0.01112000       0.76497100       0.54022100
   122  O          0.01112000       0.23502900       0.45977900
   123  O          0.09603190       0.83518900       0.41577900
   124  O          0.90396810       0.16481100       0.58422100
   125  O          0.36622000       0.11868800       0.36788700
   126  O          0.63378000       0.88131200       0.63211300
   127  O          0.44509170       0.15604700       0.47528800
   128  O          0.55490830       0.84395300       0.52471200
   129  O          0.19482000      -0.00007100       0.76123800
   130  O          0.80518000       0.00007100       0.23876200
   131  O          0.15325160       0.85646800       0.78650700
   132  O          0.84674840       0.14353200       0.21349300
   133  N          0.06927180       0.82635900       0.49122100
   134  N          0.93072820       0.17364100       0.50877900
   135  N          0.37000180       0.10703800       0.44430800
   136  N          0.62999820       0.89296200       0.55569200
   137  C          0.18692000       0.94501100       0.64432900
   138  C          0.81308000       0.05498900       0.35567100
   139  C          0.12106190       0.88119100       0.61256100
   140  C          0.87893810       0.11880900       0.38743900
   141  H          0.06610000       0.82970000       0.64990000
   142  H          0.93390000       0.17030000       0.35010000
   143  C          0.13715190       0.89413900       0.52551100
   144  C          0.86284810       0.10586100       0.47448900
   145  C          0.21711190       0.96697900       0.46849900
   146  C          0.78288810       0.03302100       0.53150100
   147  H          0.22750000       0.97430000       0.40890000
   148  H          0.77250000       0.02570000       0.59110000
   149  C          0.28120190       0.02872900       0.50258900
   150  C          0.71879810       0.97127100       0.49741100
   151  C          0.26752000       0.01959900       0.58902900
   152  C          0.73248000       0.98040100       0.41097100
   153  H          0.31260000       0.06370000       0.61020000
   154  H          0.68740000       0.93630000       0.38980000
   155  C          0.17682000       0.93243110       0.73967100
   156  C          0.82318000       0.06756890       0.26032900
   157  O          0.87722000       0.69194800       0.92314900
   158  O          0.12278000       0.30805200       0.07685100
   159  O          0.79118180       0.74970900       0.79701900
   160  O          0.20881820       0.25029100       0.20298100
   161  O          0.60062000       0.04864900       0.71583800
   162  O          0.39938000       0.95135100       0.28416200
   163  O          0.58602000       0.12038900       0.80821900
   164  O          0.41398000       0.87961100       0.19178100
   165  O          0.77940190      -0.00315200       0.08784800
   166  O          0.22059810       0.00315200       0.91215200
   167  H          0.79530000      -0.00288400       0.14661700
   168  H          0.20470000       0.00288400       0.85338300
   169  O          0.91042000       0.86733900       0.12233900
   170  O          0.08958000       0.13266100       0.87766100
   171  N          0.82041190       0.75270900       0.86820100
   172  N          0.17958810       0.24729100       0.13179900
   173  N          0.61992000       0.05504100       0.78673900
   174  N          0.38008000       0.94495900       0.21326100
   175  C          0.79202000       0.91833100       0.98777100
   176  C          0.20798000       0.08166900       0.01222900
   177  C          0.82542000       0.84092100       0.96773100
   178  C          0.17458000       0.15907900       0.03226900
   179  H          0.87430000       0.79280000       0.00750000
   180  H          0.12570000       0.20720000      -0.00750000
   181  C          0.78642000       0.83507100       0.88930100
   182  C          0.21358000       0.16492900       0.11069900
   183  C          0.71752000       0.90338110       0.82864100
   184  C          0.28248000       0.09661890       0.17135900
   185  H          0.69160000       0.89820000       0.77470000
   186  H          0.30840000       0.10180000       0.22530000
   187  C          0.68812000       0.97944100       0.85049100
   188  C          0.31188000       0.02055900       0.14950900
   189  C          0.72232000       0.98824100       0.92880100
   190  C          0.27768000       0.01175900       0.07119900
   191  H          0.69840000       0.04140000       0.94200000
   192  H          0.30160000       0.95860000       0.05800000
   193  C          0.83352000       0.92424110       0.07375110
   194  C          0.16648000       0.07575890       0.92624890
