data_PITYOG
_symmetry_space_group_name_H-M    'P1'
_symmetry_Int_Tables_number       1
loop_
_symmetry_equiv_pos_site_id
_symmetry_equiv_pos_as_xyz
1 x,y,z
_cell_length_a                   21.3213
_cell_length_b                   5.4031
_cell_length_c                   8.0761
_cell_angle_alpha                90.0
_cell_angle_beta                 95.611
_cell_angle_gamma                90.0
loop_
_atom_site_label
_atom_site_type_symbol
_atom_site_fract_x
_atom_site_fract_y
_atom_site_fract_z
     1  O          0.72541000       0.96597000       0.90658000
     2  O          0.27459000       0.46597000       0.59342000
     3  O          0.27459000       0.03403000       0.09342000
     4  O          0.72541000       0.53403000       0.40658000
     5  C          0.66221000       0.97177000       0.92828000
     6  C          0.33779000       0.47177000       0.57172000
     7  C          0.33779000       0.02823000       0.07172000
     8  C          0.66221000       0.52823000       0.42828000
     9  C          0.62061000       0.79266000       0.86348000
    10  C          0.37939000       0.29266000       0.63652000
    11  C          0.37939000       0.20734000       0.13652000
    12  C          0.62061000       0.70734000       0.36348000
    13  C          0.55761000       0.80517000       0.89198000
    14  C          0.44239000       0.30517000       0.60802000
    15  C          0.44239000       0.19483000       0.10802000
    16  C          0.55761000       0.69483000       0.39198000
    17  C          0.53381000      -0.00463000      -0.01572000
    18  C          0.46619000       0.49537000       0.51572000
    19  C          0.46619000       0.00463000       0.01572000
    20  C          0.53381000       0.50463000       0.48428000
    21  C          0.57691000       0.17583000       0.04492000
    22  C          0.42309000       0.67583000       0.45508000
    23  C          0.42309000       0.82417000       0.95508000
    24  C          0.57691000       0.32417000       0.54492000
    25  C          0.64001000       0.16454000       0.01752000
    26  C          0.35999000       0.66454000       0.48248000
    27  C          0.35999000       0.83546000       0.98248000
    28  C          0.64001000       0.33546000       0.51752000
    29  H          0.73710000       0.80350000       0.86270000
    30  H          0.26290000       0.30350000       0.63730000
    31  H          0.26290000       0.19650000       0.13730000
    32  H          0.73710000       0.69650000       0.36270000
    33  H          0.63610000       0.65160000       0.79880000
    34  H          0.36390000       0.15160000       0.70120000
    35  H          0.36390000       0.34840000       0.20120000
    36  H          0.63610000       0.84840000       0.29880000
    37  H          0.52910000       0.67060000       0.84680000
    38  H          0.47090000       0.17060000       0.65320000
    39  H          0.47090000       0.32940000       0.15320000
    40  H          0.52910000       0.82940000       0.34680000
    41  H          0.56310000       0.31340000       0.10820000
    42  H          0.43690000       0.81340000       0.39180000
    43  H          0.43690000       0.68660000       0.89180000
    44  H          0.56310000       0.18660000       0.60820000
    45  H          0.66910000       0.28940000       0.06320000
    46  H          0.33090000       0.78940000       0.43680000
    47  H          0.33090000       0.71060000       0.93680000
    48  H          0.66910000       0.21060000       0.56320000
    49  N          0.77151000      -0.02084000       0.28982000
    50  N          0.22849000       0.47916000       0.21018000
    51  N          0.22849000       0.02084000       0.71018000
    52  N          0.77151000       0.52084000       0.78982000
    53  C          0.83721000      -0.00993000       0.34702000
    54  C          0.16279000       0.49007000       0.15298000
    55  C          0.16279000       0.00993000       0.65298000
    56  C          0.83721000       0.50993000       0.84702000
    57  C          0.87791000       0.81306000       0.29862000
    58  C          0.12209000       0.31306000       0.20138000
    59  C          0.12209000       0.18694000       0.70138000
    60  C          0.87791000       0.68694000       0.79862000
    61  C          0.94121000       0.81756000       0.35792000
    62  C          0.05879000       0.31756000       0.14208000
    63  C          0.05879000       0.18244000       0.64208000
    64  C          0.94121000       0.68244000       0.85792000
    65  C          0.96601000      -0.00213000       0.46802000
    66  C          0.03399000       0.49787000       0.03198000
    67  C          0.03399000       0.00213000       0.53198000
    68  C          0.96601000       0.50213000       0.96802000
    69  C          0.92391000       0.17424000       0.51512000
    70  C          0.07609000       0.67424000      -0.01512000
    71  C          0.07609000       0.82576000       0.48488000
    72  C          0.92391000       0.32576000       0.01512000
    73  C          0.86071000       0.17054000       0.45592000
    74  C          0.13929000       0.67054000       0.04408000
    75  C          0.13929000       0.82946000       0.54408000
    76  C          0.86071000       0.32946000       0.95592000
    77  H          0.76510000       0.95060000       0.18230000
    78  H          0.23490000       0.45060000       0.31770000
    79  H          0.23490000       0.04940000       0.81770000
    80  H          0.76510000       0.54940000       0.68230000
    81  H          0.75210000       0.12750000       0.31530000
    82  H          0.24790000       0.62750000       0.18470000
    83  H          0.24790000       0.87250000       0.68470000
    84  H          0.75210000       0.37250000       0.81530000
    85  H          0.86210000       0.68160000       0.22420000
    86  H          0.13790000       0.18160000       0.27580000
    87  H          0.13790000       0.31840000       0.77580000
    88  H          0.86210000       0.81840000       0.72420000
    89  H          0.96910000       0.68760000       0.32220000
    90  H          0.03090000       0.18760000       0.17780000
    91  H          0.03090000       0.31240000       0.67780000
    92  H          0.96910000       0.81240000       0.82220000
    93  H          0.93810000       0.30240000       0.59430000
    94  H          0.06190000       0.80240000       0.90570000
    95  H          0.06190000       0.69760000       0.40570000
    96  H          0.93810000       0.19760000       0.09430000
    97  H          0.83310000       0.29840000       0.49530000
    98  H          0.16690000       0.79840000       0.00470000
    99  H          0.16690000       0.70160000       0.50470000
   100  H          0.83310000       0.20160000      -0.00470000
