data_PITYIA
_symmetry_space_group_name_H-M    'P1'
_symmetry_Int_Tables_number       1
loop_
_symmetry_equiv_pos_site_id
_symmetry_equiv_pos_as_xyz
1 x,y,z
_cell_length_a                   17.3973
_cell_length_b                   5.3451
_cell_length_c                   8.1112
_cell_angle_alpha                90.0
_cell_angle_beta                 101.052
_cell_angle_gamma                90.0
loop_
_atom_site_label
_atom_site_type_symbol
_atom_site_fract_x
_atom_site_fract_y
_atom_site_fract_z
     1  O          0.21901000       0.53694000       0.52672000
     2  O          0.78099000       0.03694000       0.97328000
     3  O          0.78099000       0.46306000       0.47328000
     4  O          0.21901000       0.96306000       0.02672000
     5  C          0.29801000       0.53015000       0.52433000
     6  C          0.70199000       0.03015000       0.97567000
     7  C          0.70199000       0.46985000       0.47567000
     8  C          0.29801000       0.96985000       0.02433000
     9  C          0.34931000       0.71015000       0.60203000
    10  C          0.65069000       0.21015000       0.89797000
    11  C          0.65069000       0.28985000       0.39797000
    12  C          0.34931000       0.78985000       0.10203000
    13  C          0.42801000       0.69575000       0.59183000
    14  C          0.57199000       0.19575000       0.90817000
    15  C          0.57199000       0.30425000       0.40817000
    16  C          0.42801000       0.80425000       0.09183000
    17  C          0.45771000       0.50435000       0.50613000
    18  C          0.54229000       0.00435000      -0.00613000
    19  C          0.54229000       0.49565000       0.49387000
    20  C          0.45771000      -0.00435000       0.00613000
    21  C          0.40431000       0.32365000       0.43233000
    22  C          0.59569000       0.82365000       0.06767000
    23  C          0.59569000       0.67635000       0.56767000
    24  C          0.40431000       0.17635000       0.93233000
    25  C          0.32571000       0.33565000       0.44093000
    26  C          0.67429000       0.83565000       0.05907000
    27  C          0.67429000       0.66435000       0.55907000
    28  C          0.32571000       0.16435000       0.94093000
    29  H          0.20520000       0.69770000       0.56650000
    30  H          0.79480000       0.19770000       0.93350000
    31  H          0.79480000       0.30230000       0.43350000
    32  H          0.20520000       0.80230000       0.06650000
    33  H          0.33310000       0.85260000       0.66830000
    34  H          0.66690000       0.35260000       0.83170000
    35  H          0.66690000       0.14740000       0.33170000
    36  H          0.33310000       0.64740000       0.16830000
    37  H          0.46320000       0.82650000       0.65030000
    38  H          0.53680000       0.32650000       0.84970000
    39  H          0.53680000       0.17350000       0.34970000
    40  H          0.46320000       0.67350000       0.15030000
    41  H          0.42310000       0.18750000       0.37430000
    42  H          0.57690000       0.68750000       0.12570000
    43  H          0.57690000       0.81250000       0.62570000
    44  H          0.42310000       0.31250000       0.87430000
    45  H          0.29020000       0.20750000       0.38830000
    46  H          0.70980000       0.70750000       0.11170000
    47  H          0.70980000       0.79250000       0.61170000
    48  H          0.29020000       0.29250000       0.88830000
    49  N          0.16261000       0.51565000       0.13373000
    50  N          0.83739000       0.01565000       0.36627000
    51  N          0.83739000       0.48435000       0.86627000
    52  N          0.16261000      -0.01565000       0.63373000
    53  C          0.08011000       0.50445000       0.06813000
    54  C          0.91989000       0.00445000       0.43187000
    55  C          0.91989000       0.49555000       0.93187000
    56  C          0.08011000      -0.00445000       0.56813000
    57  C          0.03051000       0.68105000       0.11553000
    58  C          0.96949000       0.18105000       0.38447000
    59  C          0.96949000       0.31895000       0.88447000
    60  C          0.03051000       0.81895000       0.61553000
    61  C          0.04891000       0.32345000       0.95187000
    62  C          0.95109000       0.82345000       0.54813000
    63  C          0.95109000       0.67655000       0.04813000
    64  C          0.04891000       0.17655000       0.45187000
    65  H          0.17320000       0.54150000       0.24540000
    66  H          0.82680000       0.04150000       0.25460000
    67  H          0.82680000       0.45850000       0.75460000
    68  H          0.17320000       0.95850000       0.74540000
    69  H          0.18720000       0.36560000       0.11040000
    70  H          0.81280000       0.86560000       0.38960000
    71  H          0.81280000       0.63440000       0.88960000
    72  H          0.18720000       0.13440000       0.61040000
    73  H          0.05310000       0.81650000       0.19930000
    74  H          0.94690000       0.31650000       0.30070000
    75  H          0.94690000       0.18350000       0.80070000
    76  H          0.05310000       0.68350000       0.69930000
    77  H          0.08620000       0.19550000       0.91960000
    78  H          0.91380000       0.69550000       0.58040000
    79  H          0.91380000       0.80450000       0.08040000
    80  H          0.08620000       0.30450000       0.41960000
