data_PIWQIZ
_symmetry_space_group_name_H-M    'P1'
_symmetry_Int_Tables_number       1
loop_
_symmetry_equiv_pos_site_id
_symmetry_equiv_pos_as_xyz
1 x,y,z
_cell_length_a                   11.40613
_cell_length_b                   5.746501
_cell_length_c                   18.41244
_cell_angle_alpha                90.0
_cell_angle_beta                 90.4792
_cell_angle_gamma                90.0
loop_
_atom_site_label
_atom_site_type_symbol
_atom_site_fract_x
_atom_site_fract_y
_atom_site_fract_z
     1  I          0.77323200       0.39084400       0.46258200
     2  I          0.22676800       0.89084400       0.03741800
     3  I          0.22676800       0.60915600       0.53741800
     4  I          0.77323200       0.10915600       0.96258200
     5  F          0.87119180       0.94386000       0.37643110
     6  F          0.12880820       0.44386000       0.12356890
     7  F          0.12880820       0.05614000       0.62356890
     8  F          0.87119180       0.55614000       0.87643110
     9  F          0.95599190       0.35284000       0.59363110
    10  F          0.04400810       0.85284000       0.90636890
    11  F          0.04400810       0.64716000       0.40636890
    12  F          0.95599190       0.14716000       0.09363110
    13  C          0.97653000       0.17776000       0.54669180
    14  C          0.02347000       0.67776000       0.95330820
    15  C          0.02347000       0.82224000       0.45330820
    16  C          0.97653000       0.32224000       0.04669180
    17  C          0.90843000       0.15746000       0.48452190
    18  C          0.09157000       0.65746000       0.01547810
    19  C          0.09157000       0.84254000       0.51547810
    20  C          0.90843000       0.34254000       0.98452190
    21  C          0.93433000       0.97404000       0.43775180
    22  C          0.06567000       0.47404000       0.06224820
    23  C          0.06567000       0.02596000       0.56224820
    24  C          0.93433000       0.52596000       0.93775180
    25  S          0.52320700       0.77229150       0.39136400
    26  S          0.47679300       0.27229150       0.10863600
    27  S          0.47679300       0.22770850       0.60863600
    28  S          0.52320700       0.72770850       0.89136400
    29  O          0.59432000       0.79395000       0.45642130
    30  O          0.40568000       0.29395000       0.04357870
    31  O          0.40568000       0.20605000       0.54357870
    32  O          0.59432000       0.70605000       0.95642130
    33  O          0.49142000       0.54375000       0.36755150
    34  O          0.50858000       0.04375000       0.13244850
    35  O          0.50858000       0.45625000       0.63244850
    36  O          0.49142000       0.95625000       0.86755150
    37  N          0.40663000       0.92476000       0.40748170
    38  N          0.59337000       0.42476000       0.09251830
    39  N          0.59337000       0.07524000       0.59251830
    40  N          0.40663000       0.57524000       0.90748170
    41  C          0.31353000       0.96586000       0.35730170
    42  C          0.68647000       0.46586000       0.14269830
    43  C          0.68647000       0.03414000       0.64269830
    44  C          0.31353000       0.53414000       0.85730170
    45  C          0.12643000       0.05947000       0.26302000
    46  C          0.87357000       0.55947000       0.23698000
    47  C          0.87357000       0.94053000       0.73698000
    48  C          0.12643000       0.44053000       0.76302000
    49  H          0.06263700       0.09105600       0.23099500
    50  H          0.93736300       0.59105600       0.26900500
    51  H          0.93736300       0.90894400       0.76900500
    52  H          0.06263700       0.40894400       0.73099500
    53  C          0.15903000       0.22017000       0.31572000
    54  C          0.84097000       0.72017000       0.18428000
    55  C          0.84097000       0.77983000       0.68428000
    56  C          0.15903000       0.27983000       0.81572000
    57  H          0.11705800       0.36223600       0.31981000
    58  H          0.88294200       0.86223600       0.18019000
    59  H          0.88294200       0.63776400       0.68019000
    60  H          0.11705800       0.13776400       0.81981000
    61  C          0.27963000       0.80396000       0.30502000
    62  C          0.72037000       0.30396000       0.19498000
    63  C          0.72037000       0.19604000       0.69498000
    64  C          0.27963000       0.69604000       0.80502000
    65  H          0.31935600       0.65912500       0.30161100
    66  H          0.68064400       0.15912500       0.19838900
    67  H          0.68064400       0.34087500       0.69838900
    68  H          0.31935600       0.84087500       0.80161100
    69  C          0.25283000       0.17517000       0.36272000
    70  C          0.74717000       0.67517000       0.13728000
    71  C          0.74717000       0.82483000       0.63728000
    72  C          0.25283000       0.32483000       0.86272000
    73  H          0.27517300       0.28678800       0.39820100
    74  H          0.72482700       0.78678800       0.10179900
    75  H          0.72482700       0.71321200       0.60179900
    76  H          0.27517300       0.21321200       0.89820100
    77  C          0.18723000       0.85477000       0.25782000
    78  C          0.81277000       0.35477000       0.24218000
    79  C          0.81277000       0.14523000       0.74218000
    80  C          0.18723000       0.64523000       0.75782000
    81  H          0.16600400       0.74541200       0.22123500
    82  H          0.83399600       0.24541200       0.27876500
    83  H          0.83399600       0.25458800       0.77876500
    84  H          0.16600400       0.75458800       0.72123500
    85  C          0.59493000       0.91258000       0.31922000
    86  C          0.40507000       0.41258000       0.18078000
    87  C          0.40507000       0.08742000       0.68078000
    88  C          0.59493000       0.58742000       0.81922000
    89  H          0.61790200       0.06969800       0.33422400
    90  H          0.38209800       0.56969800       0.16577600
    91  H          0.38209800       0.93030200       0.66577600
    92  H          0.61790200       0.43030200       0.83422400
    93  H          0.54187400       0.92196400       0.27716900
    94  H          0.45812600       0.42196400       0.22283100
    95  H          0.45812600       0.07803600       0.72283100
    96  H          0.54187400       0.57803600       0.77716900
    97  H          0.66499200       0.82368500       0.30603800
    98  H          0.33500800       0.32368500       0.19396200
    99  H          0.33500800       0.17631500       0.69396200
   100  H          0.66499200       0.67631500       0.80603800
   101  H          0.41640000       0.02090000       0.44030000
   102  H          0.58360000       0.52090000       0.05970000
   103  H          0.58360000      -0.02090000       0.55970000
   104  H          0.41640000       0.47910000       0.94030000
