data_PIWQUL
_symmetry_space_group_name_H-M    'P1'
_symmetry_Int_Tables_number       1
loop_
_symmetry_equiv_pos_site_id
_symmetry_equiv_pos_as_xyz
1 x,y,z
_cell_length_a                   16.99672
_cell_length_b                   8.902501
_cell_length_c                   22.25113
_cell_angle_alpha                90.0
_cell_angle_beta                 95.96501
_cell_angle_gamma                90.0
loop_
_atom_site_label
_atom_site_type_symbol
_atom_site_fract_x
_atom_site_fract_y
_atom_site_fract_z
     1  I          0.06199200       0.51091200       0.18643200
     2  I          0.93800800       0.51091200       0.31356800
     3  I          0.56199200       0.01091200       0.18643200
     4  I          0.43800800       0.01091200       0.31356800
     5  I          0.93800800       0.48908800       0.81356800
     6  I          0.06199200       0.48908800       0.68643200
     7  I          0.43800800      -0.01091200       0.81356800
     8  I          0.56199200      -0.01091200       0.68643200
     9  F          0.09071500       0.84748110       0.15656400
    10  F          0.90928500       0.84748110       0.34343600
    11  F          0.59071500       0.34748110       0.15656400
    12  F          0.40928500       0.34748110       0.34343600
    13  F          0.90928500       0.15251890       0.84343600
    14  F          0.09071500       0.15251890       0.65656400
    15  F          0.40928500       0.65251890       0.84343600
    16  F          0.59071500       0.65251890       0.65656400
    17  F          0.04247600       0.10760110       0.20170500
    18  F          0.95752400       0.10760110       0.29829500
    19  F          0.54247600       0.60760110       0.20170500
    20  F          0.45752400       0.60760110       0.29829500
    21  F          0.95752400       0.89239890       0.79829500
    22  F          0.04247600       0.89239890       0.70170500
    23  F          0.45752400       0.39239890       0.79829500
    24  F          0.54247600       0.39239890       0.70170500
    25  C          0.04534800       0.84211170       0.20273700
    26  C          0.95465200       0.84211170       0.29726300
    27  C          0.54534800       0.34211170       0.20273700
    28  C          0.45465200       0.34211170       0.29726300
    29  C          0.95465200       0.15788830       0.79726300
    30  C          0.04534800       0.15788830       0.70273700
    31  C          0.45465200       0.65788830       0.79726300
    32  C          0.54534800       0.65788830       0.70273700
    33  C          0.02229900       0.97745160       0.22585800
    34  C          0.97770100       0.97745160       0.27414200
    35  C          0.52229900       0.47745160       0.22585800
    36  C          0.47770100       0.47745160       0.27414200
    37  C          0.97770100       0.02254840       0.77414200
    38  C          0.02229900       0.02254840       0.72585800
    39  C          0.47770100       0.52254840       0.77414200
    40  C          0.52229900       0.52254840       0.72585800
    41  C          0.02332800       0.70598160       0.22592600
    42  C          0.97667200       0.70598160       0.27407400
    43  C          0.52332800       0.20598160       0.22592600
    44  C          0.47667200       0.20598160       0.27407400
    45  C          0.97667200       0.29401840       0.77407400
    46  C          0.02332800       0.29401840       0.72592600
    47  C          0.47667200       0.79401840       0.77407400
    48  C          0.52332800       0.79401840       0.72592600
    49  S          0.30753200       0.25599300       0.14796200
    50  S          0.69246800       0.25599300       0.35203800
    51  S          0.80753200       0.75599300       0.14796200
    52  S          0.19246800       0.75599300       0.35203800
    53  S          0.69246800       0.74400700       0.85203800
    54  S          0.30753200       0.74400700       0.64796200
    55  S          0.19246800       0.24400700       0.85203800
    56  S          0.80753200       0.24400700       0.64796200
    57  Cl         0.00964200       0.26481700       0.95859800
    58  Cl         0.99035800       0.26481700       0.54140200
    59  Cl         0.50964200       0.76481700       0.95859800
    60  Cl         0.49035800       0.76481700       0.54140200
    61  Cl         0.99035800       0.73518300       0.04140200
    62  Cl         0.00964200       0.73518300       0.45859800
    63  Cl         0.49035800       0.23518300       0.04140200
    64  Cl         0.50964200       0.23518300       0.45859800
    65  O          0.33484600       0.10414110       0.15451500
    66  O          0.66515400       0.10414110       0.34548500
    67  O          0.83484600       0.60414110       0.15451500
    68  O          0.16515400       0.60414110       0.34548500
    69  O          0.66515400       0.89585890       0.84548500
    70  O          0.33484600       0.89585890       0.65451500
    71  O          0.16515400       0.39585890       0.84548500
    72  O          0.83484600       0.39585890       0.65451500
    73  O          0.21747600       0.09661100       0.23933400
    74  O          0.78252400       0.09661100       0.26066600
    75  O          0.71747600       0.59661100       0.23933400
    76  O          0.28252400       0.59661100       0.26066600
    77  O          0.78252400       0.90338900       0.76066600
    78  O          0.21747600       0.90338900       0.73933400
    79  O          0.28252400       0.40338900       0.76066600
    80  O          0.71747600       0.40338900       0.73933400
    81  O          0.35990600       0.37233110       0.13206500
    82  O          0.64009400       0.37233110       0.36793500
    83  O          0.85990600       0.87233110       0.13206500
    84  O          0.14009400       0.87233110       0.36793500
    85  O          0.64009400       0.62766890       0.86793500
    86  O          0.35990600       0.62766890       0.63206500
    87  O          0.14009400       0.12766890       0.86793500
    88  O          0.85990600       0.12766890       0.63206500
    89  N          0.27856700       0.31324130       0.21206500
    90  N          0.72143300       0.31324130       0.28793500
    91  N          0.77856700       0.81324130       0.21206500
    92  N          0.22143300       0.81324130       0.28793500
    93  N          0.72143300       0.68675870       0.78793500
    94  N          0.27856700       0.68675870       0.71206500
    95  N          0.22143300       0.18675870       0.78793500
    96  N          0.77856700       0.18675870       0.71206500
    97  N          0.20739700       0.31215130       0.29360500
    98  N          0.79260300       0.31215130       0.20639500
    99  N          0.70739700       0.81215130       0.29360500
   100  N          0.29260300       0.81215130       0.20639500
   101  N          0.79260300       0.68784870       0.70639500
   102  N          0.20739700       0.68784870       0.79360500
   103  N          0.29260300       0.18784870       0.70639500
   104  N          0.70739700       0.18784870       0.79360500
   105  C          0.22272800       0.25819150       0.09504600
   106  C          0.77727200       0.25819150       0.40495400
   107  C          0.72272800       0.75819150       0.09504600
   108  C          0.27727200       0.75819150       0.40495400
   109  C          0.77727200       0.74180850       0.90495400
   110  C          0.22272800       0.74180850       0.59504600
   111  C          0.27727200       0.24180850       0.90495400
   112  C          0.72272800       0.24180850       0.59504600
   113  C          0.23221800       0.23075150       0.24892600
   114  C          0.76778200       0.23075150       0.25107400
   115  C          0.73221800       0.73075150       0.24892600
   116  C          0.26778200       0.73075150       0.25107400
   117  C          0.76778200       0.76924850       0.75107400
   118  C          0.23221800       0.76924850       0.74892600
   119  C          0.26778200       0.26924850       0.75107400
   120  C          0.73221800       0.26924850       0.74892600
   121  C          0.21400900       0.37334160       0.05250700
   122  C          0.78599100       0.37334160       0.44749300
   123  C          0.71400900       0.87334160       0.05250700
   124  C          0.28599100       0.87334160       0.44749300
   125  C          0.78599100       0.62665840       0.94749300
   126  C          0.21400900       0.62665840       0.55250700
   127  C          0.28599100       0.12665840       0.94749300
   128  C          0.71400900       0.12665840       0.55250700
   129  H          0.25296500       0.44979700       0.05230300
   130  H          0.74703500       0.44979700       0.44769700
   131  H          0.75296500       0.94979700       0.05230300
   132  H          0.24703500       0.94979700       0.44769700
   133  H          0.74703500       0.55020300       0.94769700
   134  H          0.25296500       0.55020300       0.55230300
   135  H          0.24703500       0.05020300       0.94769700
   136  H          0.75296500       0.05020300       0.55230300
   137  C          0.15732800       0.25275150       0.33728600
   138  C          0.84267200       0.25275150       0.16271400
   139  C          0.65732800       0.75275150       0.33728600
   140  C          0.34267200       0.75275150       0.16271400
   141  C          0.84267200       0.74724850       0.66271400
   142  C          0.15732800       0.74724850       0.83728600
   143  C          0.34267200       0.24724850       0.66271400
   144  C          0.65732800       0.24724850       0.83728600
   145  H          0.14233000       0.14807500       0.32629800
   146  H          0.85767000       0.14807500       0.17370200
   147  H          0.64233000       0.64807500       0.32629800
   148  H          0.35767000       0.64807500       0.17370200
   149  H          0.85767000       0.85192500       0.67370200
   150  H          0.14233000       0.85192500       0.82629800
   151  H          0.35767000       0.35192500       0.67370200
   152  H          0.64233000       0.35192500       0.82629800
   153  H          0.10822200       0.31307000       0.33582600
   154  H          0.89177800       0.31307000       0.16417400
   155  H          0.60822200       0.81307000       0.33582600
   156  H          0.39177800       0.81307000       0.16417400
   157  H          0.89177800       0.68693000       0.66417400
   158  H          0.10822200       0.68693000       0.83582600
   159  H          0.39177800       0.18693000       0.66417400
   160  H          0.60822200       0.18693000       0.83582600
   161  C          0.16665900       0.14471180       0.09598700
   162  C          0.83334100       0.14471180       0.40401300
   163  C          0.66665900       0.64471180       0.09598700
   164  C          0.33334100       0.64471180       0.40401300
   165  C          0.83334100       0.85528820       0.90401300
   166  C          0.16665900       0.85528820       0.59598700
   167  C          0.33334100       0.35528820       0.90401300
   168  C          0.66665900       0.35528820       0.59598700
   169  H          0.17371400       0.06637900       0.12503400
   170  H          0.82628600       0.06637900       0.37496600
   171  H          0.67371400       0.56637900       0.12503400
   172  H          0.32628600       0.56637900       0.37496600
   173  H          0.82628600       0.93362100       0.87496600
   174  H          0.17371400       0.93362100       0.62503400
   175  H          0.32628600       0.43362100       0.87496600
   176  H          0.67371400       0.43362100       0.62503400
   177  C          0.19900900       0.25576170       0.40117700
   178  C          0.80099100       0.25576170       0.09882300
   179  C          0.69900900       0.75576170       0.40117700
   180  C          0.30099100       0.75576170       0.09882300
   181  C          0.80099100       0.74423830       0.59882300
   182  C          0.19900900       0.74423830       0.90117700
   183  C          0.30099100       0.24423830       0.59882300
   184  C          0.69900900       0.24423830       0.90117700
   185  H          0.21855100       0.35858700       0.41086200
   186  H          0.78144900       0.35858700       0.08913800
   187  H          0.71855100       0.85858700       0.41086200
   188  H          0.28144900       0.85858700       0.08913800
   189  H          0.78144900       0.64141300       0.58913800
   190  H          0.21855100       0.64141300       0.91086200
   191  H          0.28144900       0.14141300       0.58913800
   192  H          0.71855100       0.14141300       0.91086200
   193  H          0.24516200       0.18738100       0.40376500
   194  H          0.75483800       0.18738100       0.09623500
   195  H          0.74516200       0.68738100       0.40376500
   196  H          0.25483800       0.68738100       0.09623500
   197  H          0.75483800       0.81261900       0.59623500
   198  H          0.24516200       0.81261900       0.90376500
   199  H          0.25483800       0.31261900       0.59623500
   200  H          0.74516200       0.31261900       0.90376500
   201  C          0.14762100       0.37515190       0.01033700
   202  C          0.85237900       0.37515190       0.48966300
   203  C          0.64762100       0.87515190       0.01033700
   204  C          0.35237900       0.87515190       0.48966300
   205  C          0.85237900       0.62484810       0.98966300
   206  C          0.14762100       0.62484810       0.51033700
   207  C          0.35237900       0.12484810       0.98966300
   208  C          0.64762100       0.12484810       0.51033700
   209  H          0.14077200       0.45276400       0.98094600
   210  H          0.85922800       0.45276400       0.51905400
   211  H          0.64077200       0.95276400       0.98094600
   212  H          0.35922800       0.95276400       0.51905400
   213  H          0.85922800       0.54723600       0.01905400
   214  H          0.14077200       0.54723600       0.48094600
   215  H          0.35922800       0.04723600       0.01905400
   216  H          0.64077200       0.04723600       0.48094600
   217  C          0.10001900       0.14712000       0.05389700
   218  C          0.89998100       0.14712000       0.44610300
   219  C          0.60001900       0.64712000       0.05389700
   220  C          0.39998100       0.64712000       0.44610300
   221  C          0.89998100       0.85288000       0.94610300
   222  C          0.10001900       0.85288000       0.55389700
   223  C          0.39998100       0.35288000       0.94610300
   224  C          0.60001900       0.35288000       0.55389700
   225  H          0.06086400       0.07096900       0.05403800
   226  H          0.93913600       0.07096900       0.44596200
   227  H          0.56086400       0.57096900       0.05403800
   228  H          0.43913600       0.57096900       0.44596200
   229  H          0.93913600       0.92903100       0.94596200
   230  H          0.06086400       0.92903100       0.55403800
   231  H          0.43913600       0.42903100       0.94596200
   232  H          0.56086400       0.42903100       0.55403800
   233  C          0.09167900       0.26272000       0.01164700
   234  C          0.90832100       0.26272000       0.48835300
   235  C          0.59167900       0.76272000       0.01164700
   236  C          0.40832100       0.76272000       0.48835300
   237  C          0.90832100       0.73728000       0.98835300
   238  C          0.09167900       0.73728000       0.51164700
   239  C          0.40832100       0.23728000       0.98835300
   240  C          0.59167900       0.23728000       0.51164700
   241  C          0.14308110       0.20755190       0.44694700
   242  C          0.85691890       0.20755190       0.05305300
   243  C          0.64308110       0.70755190       0.44694700
   244  C          0.35691890       0.70755190       0.05305300
   245  C          0.85691890       0.79244810       0.55305300
   246  C          0.14308110       0.79244810       0.94694700
   247  C          0.35691890       0.29244810       0.55305300
   248  C          0.64308110       0.29244810       0.94694700
   249  H          0.12440900       0.10512800       0.43775100
   250  H          0.87559100       0.10512800       0.06224900
   251  H          0.62440900       0.60512800       0.43775100
   252  H          0.37559100       0.60512800       0.06224900
   253  H          0.87559100       0.89487200       0.56224900
   254  H          0.12440900       0.89487200       0.93775100
   255  H          0.37559100       0.39487200       0.56224900
   256  H          0.62440900       0.39487200       0.93775100
   257  H          0.09776200       0.27609900       0.44478600
   258  H          0.90223800       0.27609900       0.05521400
   259  H          0.59776200       0.77609900       0.44478600
   260  H          0.40223800       0.77609900       0.05521400
   261  H          0.90223800       0.72390100       0.55521400
   262  H          0.09776200       0.72390100       0.94478600
   263  H          0.40223800       0.22390100       0.55521400
   264  H          0.59776200       0.22390100       0.94478600
   265  H          0.17114200       0.21043900       0.48768700
   266  H          0.82885800       0.21043900       0.01231300
   267  H          0.67114200       0.71043900       0.48768700
   268  H          0.32885800       0.71043900       0.01231300
   269  H          0.82885800       0.78956100       0.51231300
   270  H          0.17114200       0.78956100       0.98768700
   271  H          0.32885800       0.28956100       0.51231300
   272  H          0.67114200       0.28956100       0.98768700
   273  H          0.21761100       0.40120000       0.29498000
   274  H          0.78238900       0.40120000       0.20502000
   275  H          0.71761100       0.90120000       0.29498000
   276  H          0.28238900       0.90120000       0.20502000
   277  H          0.78238900       0.59880000       0.70502000
   278  H          0.21761100       0.59880000       0.79498000
   279  H          0.28238900       0.09880000       0.70502000
   280  H          0.71761100       0.09880000       0.79498000
   281  H          0.28411200       0.40030000       0.21781000
   282  H          0.71588800       0.40030000       0.28219000
   283  H          0.78411200       0.90030000       0.21781000
   284  H          0.21588800       0.90030000       0.28219000
   285  H          0.71588800       0.59970000       0.78219000
   286  H          0.28411200       0.59970000       0.71781000
   287  H          0.21588800       0.09970000       0.78219000
   288  H          0.78411200       0.09970000       0.71781000
