data_PIWRAS
_symmetry_space_group_name_H-M    'P1'
_symmetry_Int_Tables_number       1
loop_
_symmetry_equiv_pos_site_id
_symmetry_equiv_pos_as_xyz
1 x,y,z
_cell_length_a                   10.61902
_cell_length_b                   6.032401
_cell_length_c                   23.95716
_cell_angle_alpha                90.0
_cell_angle_beta                 95.2442
_cell_angle_gamma                90.0
loop_
_atom_site_label
_atom_site_type_symbol
_atom_site_fract_x
_atom_site_fract_y
_atom_site_fract_z
     1  I          0.72920200       0.64971200       0.56504200
     2  I          0.77079800       0.14971200       0.93495800
     3  I          0.27079800       0.35028800       0.43495800
     4  I          0.22920200       0.85028800       0.06504200
     5  F          0.74819100       0.07882000       0.48796500
     6  F          0.75180900       0.57882000       0.01203500
     7  F          0.25180900       0.92118000       0.51203500
     8  F          0.24819100       0.42118000       0.98796500
     9  F          0.42747110       0.64931190       0.56054500
    10  F          0.07252890       0.14931190       0.93945500
    11  F          0.57252890       0.35068810       0.43945500
    12  F          0.92747110       0.85068810       0.06054500
    13  C          0.59269170       0.85633000       0.52537800
    14  C          0.90730830       0.35633000       0.97462200
    15  C          0.40730830       0.14367000       0.47462200
    16  C          0.09269170       0.64367000       0.02537800
    17  C          0.62573160       0.03723000       0.49448800
    18  C          0.87426840       0.53723000       0.00551200
    19  C          0.37426840       0.96277000       0.50551200
    20  C          0.12573160       0.46277000      -0.00551200
    21  C          0.46468170       0.82093000       0.53051800
    22  C          0.03531830       0.32093000       0.96948200
    23  C          0.53531830       0.17907000       0.46948200
    24  C          0.96468170       0.67907000       0.03051800
    25  S          0.93355400       0.16243700       0.75353200
    26  S          0.56644600       0.66243700       0.74646800
    27  S          0.06644600       0.83756300       0.24646800
    28  S          0.43355400       0.33756300       0.25353200
    29  O          0.83065130       0.08552000       0.78349600
    30  O          0.66934870       0.58552000       0.71650400
    31  O          0.16934870       0.91448000       0.21650400
    32  O          0.33065130       0.41448000       0.28349600
    33  O          0.02635120       0.01002000       0.73652600
    34  O          0.47364880       0.51002000       0.76347400
    35  O          0.97364880      -0.01002000       0.26347400
    36  O          0.52635120       0.48998000       0.23652600
    37  N          0.86607140       0.27833000       0.69670700
    38  N          0.63392860       0.77833000       0.80329300
    39  N          0.13392860       0.72167000       0.30329300
    40  N          0.36607140       0.22167000       0.19670700
    41  C          0.94446160       0.35373000       0.65462800
    42  C          0.55553840       0.85373000       0.84537200
    43  C          0.05553840       0.64627000       0.34537200
    44  C          0.44446160       0.14627000       0.15462800
    45  C          0.95905170       0.21463000       0.60918800
    46  C          0.54094830       0.71463000       0.89081200
    47  C          0.04094830       0.78537000       0.39081200
    48  C          0.45905170       0.28537000       0.10918800
    49  H          0.91881000       0.07381900       0.60677700
    50  H          0.58119000       0.57381900       0.89322300
    51  H          0.08119000       0.92618100       0.39322300
    52  H          0.41881000       0.42618100       0.10677700
    53  C          0.93924170       0.51173000       0.82542800
    54  C          0.56075830       0.01173000       0.67457200
    55  C          0.06075830       0.48827000       0.17457200
    56  C          0.43924170      -0.01173000       0.32542800
    57  H          0.85057400       0.48987400       0.82507900
    58  H          0.64942600      -0.01012600       0.67492100
    59  H          0.14942600       0.51012600       0.17492100
    60  H          0.35057400       0.01012600       0.32507900
    61  C          0.00333170       0.56023000       0.65835800
    62  C          0.49666830       0.06023000       0.84164200
    63  C         -0.00333170       0.43977000       0.34164200
    64  C          0.50333170       0.93977000       0.15835800
    65  H         -0.00669300       0.65501300       0.68929600
    66  H          0.50669300       0.15501300       0.81070400
    67  H          0.00669300       0.34498700       0.31070400
    68  H          0.49330700       0.84498700       0.18929600
    69  C          0.03289180       0.28344000       0.56742800
    70  C          0.46710820       0.78344000       0.93257200
    71  C          0.96710820       0.71656000       0.43257200
    72  C          0.53289180       0.21656000       0.06742800
    73  H          0.04302500       0.18927300       0.53634700
    74  H          0.45697500       0.68927300       0.96365300
    75  H          0.95697500       0.81072700       0.46365300
    76  H          0.54302500       0.31072700       0.03634700
    77  C          0.12847180       0.71363000       0.85644800
    78  C          0.37152820       0.21363000       0.64355200
    79  C          0.87152820       0.28637000       0.14355200
    80  C          0.62847180       0.78637000       0.35644800
    81  H          0.16874700       0.83084300       0.87769500
    82  H          0.33125300       0.33084300       0.62230500
    83  H          0.83125300       0.16915700       0.12230500
    84  H          0.66874700       0.66915700       0.37769500
    85  C          0.14175170       0.40153000       0.79440800
    86  C          0.35824830       0.90153000       0.70559200
    87  C          0.85824830       0.59847000       0.20559200
    88  C          0.64175170       0.09847000       0.29440800
    89  H          0.18990900       0.30530700       0.77325200
    90  H          0.31009100       0.80530700       0.72674800
    91  H          0.81009100       0.69469300       0.22674800
    92  H          0.68990900       0.19469300       0.27325200
    93  C          0.07720180       0.62593000       0.61601900
    94  C          0.42279820       0.12593000       0.88398100
    95  C          0.92279820       0.37407000       0.38398100
    96  C          0.57720180       0.87407000       0.11601900
    97  H          0.11781400       0.76634400       0.61825900
    98  H          0.38218600       0.26634400       0.88174100
    99  H          0.88218600       0.23365600       0.38174100
   100  H          0.61781400       0.73365600       0.11825900
   101  C         -0.00182820       0.68263000       0.85643800
   102  C          0.50182820       0.18263000       0.64356200
   103  C          0.00182820       0.31737000       0.14356200
   104  C          0.49817180       0.81737000       0.35643800
   105  H          0.94997300       0.77856000       0.87764400
   106  H          0.55002700       0.27856000       0.62235600
   107  H          0.05002700       0.22144000       0.12235600
   108  H          0.44997300       0.72144000       0.37764400
   109  C          0.19955180       0.57403000       0.82554800
   110  C          0.30044820       0.07403000       0.67445200
   111  C          0.80044820       0.42597000       0.17445200
   112  C          0.69955180       0.92597000       0.32554800
   113  H          0.28812100       0.59646900       0.82569100
   114  H          0.21187900       0.09646900       0.67430900
   115  H          0.71187900       0.40353100       0.17430900
   116  H          0.78812100       0.90353100       0.32569100
   117  C          0.01135160       0.37273000       0.79488800
   118  C          0.48864840       0.87273000       0.70511200
   119  C         -0.01135160       0.62727000       0.20511200
   120  C          0.51135160       0.12727000       0.29488800
   121  C          0.09193170       0.48904000       0.57088800
   122  C          0.40806830      -0.01096000       0.92911200
   123  C          0.90806830       0.51096000       0.42911200
   124  C          0.59193170       0.01096000       0.07088800
   125  H          0.14235700       0.53535400       0.54224800
   126  H          0.35764300       0.03535400       0.95775200
   127  H          0.85764300       0.46464600       0.45775200
   128  H          0.64235700       0.96464600       0.04224800
   129  H          0.81320000       0.35940000       0.70481100
   130  H          0.68680000       0.85940000       0.79518900
   131  H          0.18680000       0.64060000       0.29518900
   132  H          0.31320000       0.14060000       0.20481100
