data_PIYYOP
_symmetry_space_group_name_H-M    'P1'
_symmetry_Int_Tables_number       1
loop_
_symmetry_equiv_pos_site_id
_symmetry_equiv_pos_as_xyz
1 x,y,z
_cell_length_a                   10.30747
_cell_length_b                   11.07877
_cell_length_c                   22.278215
_cell_angle_alpha                85.1993
_cell_angle_beta                 82.2073
_cell_angle_gamma                80.6393
loop_
_atom_site_label
_atom_site_type_symbol
_atom_site_fract_x
_atom_site_fract_y
_atom_site_fract_z
     1  C          0.76415000       0.23284000       0.95092000
     2  C          0.23585000       0.76716000       0.04908000
     3  C          0.83815000       0.26965000       0.99092000
     4  C          0.16185000       0.73035000       0.00908000
     5  H          0.88738800       0.21852100       0.01759100
     6  H          0.11261200       0.78147900       0.98240900
     7  C          0.82626000       0.39845000       0.98422000
     8  C          0.17374000       0.60155000       0.01578000
     9  H          0.86682800       0.44692500       0.00572100
    10  H          0.13317200       0.55307500      -0.00572100
    11  C          0.74455000       0.44025000       0.94062000
    12  C          0.25545000       0.55975000       0.05938000
    13  C          0.70066000       0.56904000       0.91472000
    14  C          0.29934000       0.43096000       0.08528000
    15  C          0.78365000       0.59704000       0.85582000
    16  C          0.21635000       0.40296000       0.14418000
    17  C          0.88266000       0.66555000       0.84262000
    18  C          0.11734000       0.33445000       0.15738000
    19  H          0.91400200       0.70960500       0.86984300
    20  H          0.08599800       0.29039500       0.13015700
    21  C          0.92966000       0.65815000       0.78013000
    22  C          0.07034000       0.34185000       0.21987000
    23  H         -0.00116200       0.69509800       0.75936600
    24  H          0.00116200       0.30490200       0.24063400
    25  C          0.85655000       0.58784000       0.75532000
    26  C          0.14345000       0.41216000       0.24468000
    27  C          0.86095000       0.55184000       0.69082000
    28  C          0.13905000       0.44816000       0.30918000
    29  C          0.92584000       0.42114000       0.68293190
    30  C          0.07416000       0.57886000       0.31706810
    31  C          0.04595000       0.37355000       0.65482000
    32  C          0.95405000       0.62645000       0.34518000
    33  H          0.10982200       0.41833800       0.63513300
    34  H          0.89017800       0.58166200       0.36486700
    35  C          0.05785000       0.24415000       0.66022000
    36  C          0.94215000       0.75585000       0.33978000
    37  H          0.13054800       0.18959100       0.64461400
    38  H          0.86945200       0.81040900       0.35538600
    39  C          0.94295000       0.21264000       0.69262000
    40  C          0.05705000       0.78736000       0.30738000
    41  C          0.90245000       0.08854000       0.71272000
    42  C          0.09755000       0.91146000       0.28728000
    43  C          0.90374000       0.05834000       0.77982000
    44  C          0.09626000       0.94166000       0.22018000
    45  C         -0.00815000       0.97996000       0.81163000
    46  C          0.00815000       0.02004000       0.18837000
    47  H          0.06891900       0.93281000       0.79459900
    48  H          0.93108100       0.06719000       0.20540100
    49  C          0.94565000       0.98315000       0.87443000
    50  C          0.05435000       0.01685000       0.12557000
    51  H          0.98612100       0.93748300       0.90561700
    52  H          0.01387900       0.06251700       0.09438300
    53  C          0.83175000       0.06464000       0.88102000
    54  C          0.16825000       0.93536000       0.11898000
    55  C          0.74215000       0.10654000       0.93722000
    56  C          0.25785000       0.89346000       0.06278000
    57  C          0.71637000       0.65965000       0.96142000
    58  C          0.28363000       0.34035000       0.03858000
    59  H          0.66353200       0.64217400      -0.00092700
    60  H          0.33646800       0.35782600       0.00092700
    61  H          0.80766300       0.65089400       0.96775100
    62  H          0.19233700       0.34910600       0.03224900
    63  H          0.68733100       0.74189100       0.94625200
    64  H          0.31266900       0.25810900       0.05374800
    65  C          0.94216000       0.63555000       0.64752000
    66  C          0.05784000       0.36445000       0.35248000
    67  H          0.90256700       0.71954000       0.65174000
    68  H          0.09743300       0.28046000       0.34826000
    69  H          0.03122900       0.62422800       0.65744600
    70  H          0.96877100       0.37577200       0.34255400
    71  H          0.94306900       0.61505300       0.60642400
    72  H          0.05693100       0.38494700       0.39357600
    73  C          0.71815000       0.57195000       0.67352000
    74  C          0.28185000       0.42805000       0.32648000
    75  H          0.67845400       0.65554300       0.67880700
    76  H          0.32154600       0.34445700       0.32119300
    77  H          0.72063900       0.55418500       0.63187600
    78  H          0.27936100       0.44581500       0.36812400
    79  H          0.66660100       0.51842700       0.69912000
    80  H          0.33339900       0.48157300       0.30088000
    81  C          0.00086000      -0.00875000       0.67803000
    82  C         -0.00086000       0.00875000       0.32197000
    83  H          0.00060500       0.00996100       0.63509400
    84  H         -0.00060500      -0.00996100       0.36490600
    85  H          0.08815200      -0.00869200       0.68842500
    86  H          0.91184800       0.00869200       0.31157500
    87  H          0.97519200       0.91204400       0.68860000
    88  H          0.02480800       0.08795600       0.31140000
    89  C          0.77836000       0.01635000       0.99232000
    90  C          0.22164000       0.98365000       0.00768000
    91  H          0.72188800       0.04212500       0.02829500
    92  H          0.27811200       0.95787500       0.97170500
    93  H          0.76627800       0.93514100       0.98460200
    94  H          0.23372200       0.06485900       0.01539800
    95  H          0.86910400       0.01632200      -0.00219800
    96  H          0.13089600       0.98367800       0.00219800
    97  C          0.59695000       0.10595000       0.92872000
    98  C          0.40305000       0.89405000       0.07128000
    99  H          0.54060200       0.13262700       0.96452900
   100  H          0.45939800       0.86737300       0.03547100
   101  H          0.57453000       0.16032000       0.89449400
   102  H          0.42547000       0.83968000       0.10550600
   103  H          0.58489000       0.02436000       0.92159200
   104  H          0.41511000       0.97564000       0.07840800
   105  C          0.55115000       0.58364000       0.90512000
   106  C          0.44885000       0.41636000       0.09488000
   107  H          0.54274300       0.52779700       0.87498000
   108  H          0.45725700       0.47220300       0.12502000
   109  H          0.50151300       0.55787000       0.94286500
   110  H          0.49848700       0.44213000       0.05713500
   111  C          0.48686000       0.71085000       0.88512000
   112  C          0.51314000       0.28915000       0.11488000
   113  H          0.47923400       0.76404700       0.91819900
   114  H          0.52076600       0.23595300       0.08180100
   115  H          0.54357000       0.74302300       0.85129500
   116  H          0.45643000       0.25697700       0.14870500
   117  C          0.35096000       0.71336000       0.86613000
   118  C          0.64904000       0.28664000       0.13387000
   119  H          0.30098000       0.66280400       0.89524700
   120  H          0.69902000       0.33719600       0.10475300
   121  H          0.30392000       0.79658900       0.86635600
   122  H          0.69608000       0.20341100       0.13364400
   123  C          0.33955000       0.75516000       0.76063000
   124  C          0.66045000       0.24484000       0.23937000
   125  C          0.34205000       0.70375000       0.70102000
   126  C          0.65795000       0.29625000       0.29898000
   127  C          0.30805000       0.78966000       0.65243000
   128  C          0.69195000       0.21034000       0.34757000
   129  H          0.29157900       0.87294800       0.65873400
   130  H          0.70842100       0.12705200       0.34126600
   131  C          0.29945000       0.75166000       0.59673000
   132  C          0.70055000       0.24834000       0.40327000
   133  H          0.27647400       0.80803100       0.56518700
   134  H          0.72352600       0.19196900       0.43481300
   135  C          0.32585000       0.62506000       0.58782000
   136  C          0.67415000       0.37494000       0.41218000
   137  C          0.36664000       0.53935000       0.63512000
   138  C          0.63336000       0.46065000       0.36488000
   139  C          0.37334000       0.58065000       0.69212000
   140  C          0.62666000       0.41935000       0.30788000
   141  H          0.39867600       0.52531200       0.72368900
   142  H          0.60132400       0.47468800       0.27631100
   143  C          0.43325000       0.30315000       0.63292000
   144  C          0.56675000       0.69685000       0.36708000
   145  H          0.45269700       0.28887800       0.67270500
   146  H          0.54730300       0.71112200       0.32729500
   147  C          0.38975000       0.42146000       0.61052000
   148  C          0.61025000       0.57854000       0.38948000
   149  C          0.36045000       0.43967000       0.54963000
   150  C          0.63955000       0.56033000       0.45037000
   151  C          0.37556000       0.34249000       0.51313000
   152  C          0.62444000       0.65751000       0.48687000
   153  H          0.35627200       0.35564600       0.47325000
   154  H          0.64372800       0.64435400       0.52675000
   155  C          0.41847000       0.22838000       0.53553000
   156  C          0.58153000       0.77162000       0.46447000
   157  H          0.42903800       0.16294500       0.51072100
   158  H          0.57096200       0.83705500       0.48927900
   159  C          0.44745000       0.20646000       0.59593000
   160  C          0.55255000       0.79354000       0.40407000
   161  C          0.50057000       0.08107000       0.61744000
   162  C          0.49943000       0.91893000       0.38256000
   163  C          0.58018000       0.95834000       0.70215000
   164  C          0.41982000       0.04166000       0.29785000
   165  H          0.53294300       0.93545500       0.74102800
   166  H          0.46705700       0.06454500       0.25897200
   167  H          0.58344200       0.89240900       0.67566600
   168  H          0.41655800       0.10759100       0.32433400
   169  C          0.70777000       0.96864000       0.71044000
   170  C          0.29223000       0.03136000       0.28956000
   171  H          0.76623000       0.90646800       0.68746700
   172  H          0.23377000       0.09353200       0.31253300
   173  H          0.71637100       0.94689100       0.75295500
   174  H          0.28362900       0.05310900       0.24704500
   175  C          0.76215000       0.08854000       0.69442000
   176  C          0.23785000       0.91146000       0.30558000
   177  H          0.70113800       0.15362800       0.71422800
   178  H          0.29886200       0.84637200       0.28577200
   179  H          0.76517800       0.10683700       0.65095700
   180  H          0.23482200       0.89316300       0.34904300
   181  C          0.28396000       0.62217000       0.47952000
   182  C          0.71604000       0.37783000       0.52048000
   183  H          0.33147400       0.57451500       0.44651000
   184  H          0.66852600       0.42548500       0.55349000
   185  H          0.30810400       0.70370700       0.47344900
   186  H          0.69189600       0.29629300       0.52655100
   187  C          0.13746000       0.63118000       0.47743000
   188  C          0.86254000       0.36882000       0.52257000
   189  H          0.11560100       0.66893000       0.43893500
   190  H          0.88439900       0.33107000       0.56106500
   191  H          0.11318100       0.55038800       0.48248700
   192  H          0.88681900       0.44961200       0.51751300
   193  H          0.08981900       0.67953800       0.50941700
   194  H          0.91018100       0.32046200       0.49058300
   195  N          0.70854000       0.33753000       0.92051160
   196  N          0.29146000       0.66247000       0.07948840
   197  H          0.65804200       0.33879000       0.89265800
   198  H          0.34195800       0.66121000       0.10734200
   199  N          0.76954000       0.54973000       0.80251160
   200  N          0.23046000       0.45027000       0.19748840
   201  H          0.71312600       0.50209500       0.79912500
   202  H          0.28687400       0.49790500       0.20087500
   203  N          0.86303000       0.32243000       0.70641150
   204  N          0.13697000       0.67757000       0.29358850
   205  H          0.78526100       0.32861000       0.72668400
   206  H          0.21473900       0.67139000       0.27331600
   207  N          0.80794000       0.10943000       0.82341170
   208  N          0.19206000       0.89057000       0.17658830
   209  H          0.74106100       0.16300700       0.81562000
   210  H          0.25893900       0.83699300       0.18438000
   211  N          0.32394000       0.56506000       0.53712000
   212  N          0.67606000       0.43494000       0.46288000
   213  O          0.35904000       0.66893000       0.80610160
   214  O          0.64096000       0.33107000       0.19389840
   215  O          0.31864000       0.86374000       0.76945190
   216  O          0.68136000       0.13626000       0.23054810
   217  O          0.50494000       0.06914000       0.67633000
   218  O          0.49506000       0.93086000       0.32367000
   219  O          0.54057000      -0.00445000       0.58533000
   220  O          0.45943000       0.00445000       0.41467000
   221  C          0.02725000       0.30256000       0.83363000
   222  C          0.97275000       0.69744000       0.16637000
   223  H          0.00388100       0.33920100       0.79521400
   224  H         -0.00388100       0.66079900       0.20478600
   225  H          0.00445500       0.22129200       0.83935800
   226  H         -0.00445500       0.77870800       0.16064200
   227  H          0.97959800       0.35114100       0.86561600
   228  H          0.02040200       0.64885900       0.13438400
   229  C          0.20718000       0.41638000       0.82767000
   230  C          0.79282000       0.58362000       0.17233000
   231  H          0.18421800       0.45437600       0.78934100
   232  H          0.81578200       0.54562400       0.21065900
   233  H          0.15926500       0.46379100       0.85990700
   234  H          0.84073500       0.53620900       0.14009300
   235  H          0.30055800       0.41180800       0.82861800
   236  H          0.69944200       0.58819200       0.17138200
   237  C          0.20819000       0.24171200       0.89164000
   238  C          0.79181000       0.75828800       0.10836000
   239  H          0.18598200       0.16033800       0.89729600
   240  H          0.81401800       0.83966200       0.10270400
   241  H          0.30159500       0.23812400       0.89238100
   242  H          0.69840500       0.76187600       0.10761900
   243  H          0.16030200       0.29010700       0.92367000
   244  H          0.83969800       0.70989300       0.07633000
   245  C          0.24677000       0.22101000       0.78874000
   246  C          0.75323000       0.77899000       0.21126000
   247  H          0.22540300       0.25529900       0.74963300
   248  H          0.77459700       0.74470100       0.25036700
   249  H          0.33987900       0.21749000       0.79037500
   250  H          0.66012100       0.78251000       0.20962500
   251  H          0.22420500       0.13977000       0.79531100
   252  H          0.77579500       0.86023000       0.20468900
   253  N          0.17334000       0.29604000       0.83481190
   254  N          0.82666000       0.70396000       0.16518810
   255  C          0.86391100       0.89859000       0.51095000
   256  C          0.13608900       0.10141000       0.48905000
   257  H          0.94828400       0.91144200       0.52069600
   258  H          0.05171600       0.08855800       0.47930400
   259  H          0.87564100       0.86211600       0.47257200
   260  H          0.12435900       0.13788400       0.52742800
   261  H          0.82522500       0.84497000       0.54191000
   262  H          0.17477500       0.15503000       0.45809000
   263  O          0.78271200       0.00759000       0.50757000
   264  O          0.21728800      -0.00759000       0.49243000
   265  H          0.81797700       0.06098600       0.51921400
   266  H          0.18202300       0.93901400       0.48078600
   267  Cl         0.57043110       0.33779110       0.79477500
   268  Cl         0.42956890       0.66220890       0.20522500
