data_PIZSEA
_symmetry_space_group_name_H-M    'P1'
_symmetry_Int_Tables_number       1
loop_
_symmetry_equiv_pos_site_id
_symmetry_equiv_pos_as_xyz
1 x,y,z
_cell_length_a                   5.64844
_cell_length_b                   8.16196
_cell_length_c                   15.841112
_cell_angle_alpha                81.0302
_cell_angle_beta                 85.5402
_cell_angle_gamma                76.6782
loop_
_atom_site_label
_atom_site_type_symbol
_atom_site_fract_x
_atom_site_fract_y
_atom_site_fract_z
     1  S          0.13700700       0.82392500       0.10143200
     2  S          0.86299300       0.17607500       0.89856800
     3  O          0.19047000       0.87218170       0.64654700
     4  O          0.80953000       0.12781830       0.35345300
     5  O          0.04747000       0.69572000       0.58211900
     6  O          0.95253000       0.30428000       0.41788100
     7  N          0.72788000       0.04167180       0.06567800
     8  N          0.27212000       0.95832820       0.93432200
     9  N          0.46147000       0.79269190       0.35693900
    10  N          0.53853000       0.20730810       0.64306100
    11  C          0.17717000       0.79592000       0.58445100
    12  C          0.82283000       0.20408000       0.41554900
    13  C          0.49537000       0.98272000       0.23091100
    14  C          0.50463000       0.01728000       0.76908900
    15  H          0.43140000       0.08290000       0.19560000
    16  H          0.56860000       0.91710000       0.80440000
    17  C          0.83787000       0.92524190       0.12543900
    18  C          0.16213000       0.07475810       0.87456100
    19  C          0.71547000       0.88032000       0.20821900
    20  C          0.28453000       0.11968000       0.79178100
    21  C          0.34147000       0.83422000       0.50639100
    22  C          0.65853000       0.16578000       0.49360900
    23  H          0.30380000       0.95570000       0.48690000
    24  H          0.69620000       0.04430000       0.51310000
    25  H          0.50970000       0.80190000       0.52270000
    26  H          0.49030000       0.19810000       0.47730000
    27  C          0.31296000       0.74263000       0.43475110
    28  C          0.68704000       0.25737000       0.56524890
    29  H          0.14280000       0.76810000       0.42110000
    30  H          0.85720000       0.23190000       0.57890000
    31  H          0.36330000       0.62100000       0.45250000
    32  H          0.63670000       0.37900000       0.54750000
    33  C          0.11413000       0.94744190       0.00276900
    34  C          0.88587000       0.05255810      -0.00276900
    35  C          0.37197000       0.93613000       0.30543110
    36  C          0.62803000       0.06387000       0.69456890
    37  H          0.22420000       0.00520000       0.32030000
    38  H          0.77580000      -0.00520000       0.67970000
    39  C          0.67806000       0.69482000       0.33836110
    40  C          0.32194000       0.30518000       0.66163890
    41  H          0.74080000       0.59750000       0.37590000
    42  H          0.25920000       0.40250000       0.62410000
    43  C          0.80927000       0.73632000       0.26441110
    44  C          0.19073000       0.26368000       0.73558890
    45  H          0.96030000       0.66790000       0.25230000
    46  H          0.03970000       0.33210000       0.74770000
    47  O          0.03312000       0.75448180       0.79036800
    48  O          0.96688000       0.24551820       0.20963200
    49  H          0.09810000       0.78190000       0.74380000
    50  H          0.90190000       0.21810000       0.25620000
    51  C          0.84747000       0.62692000       0.94842100
    52  C          0.15253000       0.37308000       0.05157900
    53  H          0.74420000       0.71200000       0.91400000
    54  H          0.25580000       0.28800000       0.08600000
    55  C          0.23773000       0.44112000       0.97274100
    56  C          0.76227000       0.55888000       0.02725900
    57  H          0.39820000       0.40110000       0.95440000
    58  H          0.60180000       0.59890000       0.04560000
    59  C          0.08623000       0.56852000       0.92067900
    60  C          0.91377000       0.43148000       0.07932100
    61  C          0.18793000       0.63782000       0.83604100
    62  C          0.81207000       0.36218000       0.16395900
    63  O          0.39893000       0.58782000       0.81393900
    64  O          0.60107000       0.41218000       0.18606100
    65  O          0.29623000       0.46572000       0.33067110
    66  O          0.70377000       0.53428000       0.66932890
    67  H          0.20420000       0.39780000       0.34930000
    68  H          0.79580000       0.60220000       0.65070000
    69  H          0.38770000       0.42820000       0.28950000
    70  H          0.61230000       0.57180000       0.71050000
