data_PIZXAA
_symmetry_space_group_name_H-M    'P1'
_symmetry_Int_Tables_number       1
loop_
_symmetry_equiv_pos_site_id
_symmetry_equiv_pos_as_xyz
1 x,y,z
_cell_length_a                   8.98369
_cell_length_b                   10.908211
_cell_length_c                   15.782016
_cell_angle_alpha                72.4062
_cell_angle_beta                 83.2322
_cell_angle_gamma                83.0862
loop_
_atom_site_label
_atom_site_type_symbol
_atom_site_fract_x
_atom_site_fract_y
_atom_site_fract_z
     1  Cl         0.95276500       0.29177500       0.17012400
     2  Cl         0.04723500       0.70822500       0.82987600
     3  Cl         0.52146700       0.97665500       0.19381400
     4  Cl         0.47853300       0.02334500       0.80618600
     5  O          0.71320160       0.41999140       0.27576100
     6  O          0.28679840       0.58000860       0.72423900
     7  H          0.80401800       0.42620000       0.27131600
     8  H          0.19598200       0.57380000       0.72868400
     9  N          0.28744190       0.47505170       0.19624110
    10  N          0.71255810       0.52494830       0.80375890
    11  H          0.28920000       0.40581700       0.17971400
    12  H          0.71080000       0.59418300       0.82028600
    13  N          0.16606180       0.28860160       0.39389110
    14  N          0.83393820       0.71139840       0.60610890
    15  H          0.11920000       0.34771800       0.35401300
    16  H          0.88080000       0.65228200       0.64598700
    17  C          0.67522000       0.31782190       0.25444130
    18  C          0.32478000       0.68217810       0.74555870
    19  C          0.77122000       0.24821190       0.20551130
    20  C          0.22878000       0.75178810       0.79448870
    21  C          0.72452000       0.14478190       0.18501130
    22  C          0.27548000       0.85521810       0.81498870
    23  H          0.79020000       0.09850000       0.15130000
    24  H          0.20980000       0.90150000       0.84870000
    25  C          0.58032000       0.11067190       0.21476130
    26  C          0.41968000       0.88932810       0.78523870
    27  C          0.48212000       0.17820180       0.26277130
    28  C          0.51788000       0.82179820       0.73722870
    29  H          0.38310000       0.15320000       0.28220000
    30  H          0.61690000       0.84680000       0.71780000
    31  C          0.52872000       0.28215190       0.28224130
    32  C          0.47128000       0.71784810       0.71775870
    33  C          0.42512000       0.36153190       0.33353130
    34  C          0.57488000       0.63846810       0.66646870
    35  H          0.49170000       0.39360000       0.36720000
    36  H          0.50830000       0.60640000       0.63280000
    37  C          0.34932000       0.48047190       0.27113130
    38  C          0.65068000       0.51952810       0.72886870
    39  C          0.32872000       0.60401190       0.27694140
    40  C          0.67128000       0.39598810       0.72305860
    41  C          0.37442000       0.65262000       0.34847150
    42  C          0.62558000       0.34738000       0.65152850
    43  H          0.44210000       0.72080000       0.32170000
    44  H          0.55790000       0.27920000       0.67830000
    45  H          0.42630000       0.58130000       0.39210000
    46  H          0.57370000       0.41870000       0.60790000
    47  H          0.28470000       0.68730000       0.37830000
    48  H          0.71530000       0.31270000       0.62170000
    49  C          0.25032000       0.68005190       0.20210140
    50  C          0.74968000       0.31994810       0.79789860
    51  C          0.19603000       0.81062000       0.17240160
    52  C          0.80397000       0.18938000       0.82759840
    53  H          0.21140000       0.86890000       0.20410000
    54  H          0.78860000       0.13110000       0.79590000
    55  C          0.12003000       0.85282000       0.09637160
    56  C          0.87997000       0.14718000       0.90362840
    57  H          0.08400000       0.94120000       0.07530000
    58  H          0.91600000       0.05880000       0.92470000
    59  C          0.09513000       0.76752000       0.04972160
    60  C          0.90487000       0.23248000       0.95027840
    61  H          0.04140000       0.79930000      -0.00210000
    62  H          0.95860000       0.20070000       0.00210000
    63  C          0.14653000       0.63812000       0.07707140
    64  C          0.85347000       0.36188000       0.92292860
    65  H          0.12890000       0.58050000       0.04540000
    66  H          0.87110000       0.41950000       0.95460000
    67  C          0.22532000       0.59602000       0.15320140
    68  C          0.77468000       0.40398000       0.84679860
    69  C          0.31842000       0.28031190       0.40270130
    70  C          0.68158000       0.71968810       0.59729870
    71  C          0.35232000       0.19046190       0.48134130
    72  C          0.64768000       0.80953810       0.51865870
    73  C          0.50502000       0.15502000       0.51574140
    74  C          0.49498000       0.84498000       0.48425860
    75  H          0.49490000       0.10440000       0.57870000
    76  H          0.50510000       0.89560000       0.42130000
    77  H          0.55270000       0.23370000       0.50970000
    78  H          0.44730000       0.76630000       0.49030000
    79  H          0.56730000       0.10360000       0.48130000
    80  H          0.43270000       0.89640000       0.51870000
    81  C          0.21312000       0.14161180       0.52471130
    82  C          0.78688000       0.85838820       0.47528870
    83  C          0.17382000       0.05022000       0.60616140
    84  C          0.82618000       0.94978000       0.39383860
    85  H          0.24880000       0.00410000       0.64450000
    86  H          0.75120000      -0.00410000       0.35550000
    87  C          0.02382000       0.02842000       0.62954140
    88  C          0.97618000       0.97158000       0.37045860
    89  H         -0.00400000       0.96720000       0.68470000
    90  H          0.00400000       0.03280000       0.31530000
    91  C          0.91258000       0.09472000       0.57346140
    92  C          0.08742000       0.90528000       0.42653860
    93  H          0.81050000       0.07820000       0.59150000
    94  H          0.18950000       0.92180000       0.40850000
    95  C          0.94758000       0.18362000       0.49259140
    96  C          0.05242000       0.81638000       0.50740860
    97  H          0.87180000       0.22770000       0.45430000
    98  H          0.12820000       0.77230000       0.54570000
    99  C          0.09852000       0.20628180       0.46908130
   100  C          0.90148000       0.79371820       0.53091870
   101  S          0.40865700       0.30804600       0.02242400
   102  S          0.59134300       0.69195400       0.97757600
   103  O          0.27909170       0.30604150       0.09106100
   104  O          0.72090830       0.69395850       0.90893900
   105  C          0.39476000       0.18093000       0.97708000
   106  C          0.60524000       0.81907000       0.02292000
   107  H          0.47110000       0.18540000       0.92670000
   108  H          0.52890000       0.81460000       0.07330000
   109  H          0.29440000       0.18870000       0.95640000
   110  H          0.70560000       0.81130000       0.04360000
   111  H          0.41100000       0.09800000       0.02290000
   112  H          0.58900000       0.90200000       0.97710000
   113  C          0.36183000       0.43443000       0.92648830
   114  C          0.63817000       0.56557000       0.07351170
   115  H          0.43570000       0.42990000       0.87640000
   116  H          0.56430000       0.57010000       0.12360000
   117  H          0.36250000       0.51770000       0.93810000
   118  H          0.63750000       0.48230000       0.06190000
   119  H          0.26140000       0.42590000       0.91170000
   120  H          0.73860000       0.57410000       0.08830000
   121  S          0.93875600       0.59594500       0.34200400
   122  S          0.06124400       0.40405500       0.65799600
   123  O          0.96828150       0.48795140       0.29857900
   124  O          0.03171850       0.51204860       0.70142100
   125  C          0.80723000       0.54082000       0.43589150
   126  C          0.19277000       0.45918000       0.56410850
   127  H          0.77540000       0.61050000       0.46310000
   128  H          0.22460000       0.38950000       0.53690000
   129  H          0.85460000       0.46670000       0.47970000
   130  H          0.14540000       0.53330000       0.52030000
   131  H          0.71930000       0.51490000       0.41650000
   132  H          0.28070000       0.48510000       0.58350000
   133  C          0.81653000       0.71482000       0.27206160
   134  C          0.18347000       0.28518000       0.72793840
   135  H          0.78100000       0.78280000       0.30030000
   136  H          0.21900000       0.21720000       0.69970000
   137  H          0.73020000       0.67440000       0.26320000
   138  H          0.26980000       0.32560000       0.73680000
   139  H          0.87120000       0.75250000       0.21420000
   140  H          0.12880000       0.24750000       0.78580000
