data_POBMEC
_symmetry_space_group_name_H-M    'P1'
_symmetry_Int_Tables_number       1
loop_
_symmetry_equiv_pos_site_id
_symmetry_equiv_pos_as_xyz
1 x,y,z
_cell_length_a                   12.30742
_cell_length_b                   6.426401
_cell_length_c                   21.39423
_cell_angle_alpha                90.0
_cell_angle_beta                 93.6202
_cell_angle_gamma                90.0
loop_
_atom_site_label
_atom_site_type_symbol
_atom_site_fract_x
_atom_site_fract_y
_atom_site_fract_z
     1  O          0.62417700       0.85451150       0.37877400
     2  O          0.37582300       0.35451150       0.12122600
     3  O          0.37582300       0.14548850       0.62122600
     4  O          0.62417700       0.64548850       0.87877400
     5  O          0.37008700       0.44529150       0.37229500
     6  O          0.62991300       0.94529150       0.12770500
     7  O          0.62991300       0.55470850       0.62770500
     8  O          0.37008700       0.05470850       0.87229500
     9  O          0.48055800       0.20306160       0.30201500
    10  O          0.51944200       0.70306160       0.19798500
    11  O          0.51944200       0.79693840       0.69798500
    12  O          0.48055800       0.29693840       0.80201500
    13  H          0.42807400       0.24413900       0.32033200
    14  H          0.57192600       0.74413900       0.17966800
    15  H          0.57192600       0.75586100       0.67966800
    16  H          0.42807400       0.25586100       0.82033200
    17  O          0.82814800       0.44124180       0.25006500
    18  O          0.17185200       0.94124180       0.24993500
    19  O          0.17185200       0.55875820       0.74993500
    20  O          0.82814800       0.05875820       0.75006500
    21  H          0.82026200       0.34673000       0.22441900
    22  H          0.17973800       0.84673000       0.27558100
    23  H          0.17973800       0.65327000       0.77558100
    24  H          0.82026200       0.15327000       0.72441900
    25  O          0.10966900       0.94831170       0.56899600
    26  O          0.89033100       0.44831170       0.93100400
    27  O          0.89033100       0.05168830       0.43100400
    28  O          0.10966900       0.55168830       0.06899600
    29  H          0.08718900       0.84333400       0.58573600
    30  H          0.91281100       0.34333400       0.91426400
    31  H          0.91281100       0.15666600       0.41426400
    32  H          0.08718900       0.65666600       0.08573600
    33  C          0.53580100       0.88622000       0.41159600
    34  C          0.46419900       0.38622000       0.08840400
    35  C          0.46419900       0.11378000       0.58840400
    36  C          0.53580100       0.61378000       0.91159600
    37  H          0.53354000       0.00837300       0.43476700
    38  H          0.46646000       0.50837300       0.06523300
    39  H          0.46646000      -0.00837300       0.56523300
    40  H          0.53354000       0.49162700       0.93476700
    41  C          0.45036100       0.75572000       0.41367600
    42  C          0.54963900       0.25572000       0.08632400
    43  C          0.54963900       0.24428000       0.58632400
    44  C          0.45036100       0.74428000       0.91367600
    45  C          0.45028100       0.56682000       0.37628500
    46  C          0.54971900       0.06682000       0.12371500
    47  C          0.54971900       0.43318000       0.62371500
    48  C          0.45028100       0.93318000       0.87628500
    49  C          0.54644900       0.52900190       0.34320500
    50  C          0.45355100       0.02900190       0.15679500
    51  C          0.45355100       0.47099810       0.65679500
    52  C          0.54644900       0.97099810       0.84320500
    53  C          0.56000100       0.34772000       0.30653600
    54  C          0.43999900       0.84772000       0.19346400
    55  C          0.43999900       0.65228000       0.69346400
    56  C          0.56000100       0.15228000       0.80653600
    57  C          0.65325100       0.31592000       0.27586600
    58  C          0.34674900       0.81592000       0.22413400
    59  C          0.34674900       0.68408000       0.72413400
    60  C          0.65325100       0.18408000       0.77586600
    61  H          0.66133600       0.19492800       0.25273300
    62  H          0.33866400       0.69492800       0.24726700
    63  H          0.33866400       0.80507200       0.74726700
    64  H          0.66133600       0.30507200       0.75273300
    65  C          0.73635100       0.46562000       0.27939600
    66  C          0.26364900       0.96562000       0.22060400
    67  C          0.26364900       0.53438000       0.72060400
    68  C          0.73635100       0.03438000       0.77939600
    69  C          0.72597100       0.64522000       0.31516600
    70  C          0.27402900       0.14522000       0.18483400
    71  C          0.27402900       0.35478000       0.68483400
    72  C          0.72597100       0.85478000       0.81516600
    73  H          0.78148200       0.74356900       0.31840400
    74  H          0.21851800       0.24356900       0.18159600
    75  H          0.21851800       0.25643100       0.68159600
    76  H          0.78148200       0.75643100       0.81840400
    77  C          0.63175100       0.67378190       0.34557600
    78  C          0.36824900       0.17378190       0.15442400
    79  C          0.36824900       0.32621810       0.65442400
    80  C          0.63175100       0.82621810       0.84557600
    81  C          0.35885100       0.80462000       0.45341600
    82  C          0.64114900       0.30462000       0.04658400
    83  C          0.64114900       0.19538000       0.54658400
    84  C          0.35885100       0.69538000       0.95341600
    85  C          0.30898110      -0.00078000       0.45222600
    86  C          0.69101890       0.49922000       0.04777400
    87  C          0.69101890       0.00078000       0.54777400
    88  C          0.30898110       0.50078000       0.95222600
    89  H          0.33157000       0.10040300       0.42479000
    90  H          0.66843000       0.60040300       0.07521000
    91  H          0.66843000       0.89959700       0.57521000
    92  H          0.33157000       0.39959700       0.92479000
    93  C          0.22639120       0.04502000       0.49110700
    94  C          0.77360880       0.54502000       0.00889300
    95  C          0.77360880       0.95498000       0.50889300
    96  C          0.22639120       0.45498000       0.99110700
    97  H          0.19433000       0.17612300       0.48954200
    98  H          0.80567000       0.67612300       0.01045800
    99  H          0.80567000       0.82387700       0.51045800
   100  H          0.19433000       0.32387700       0.98954200
   101  C          0.19116110       0.89652000       0.53239600
   102  C          0.80883890       0.39652000       0.96760400
   103  C          0.80883890       0.10348000       0.46760400
   104  C          0.19116110       0.60348000       0.03239600
   105  C          0.24120110       0.70272000       0.53461600
   106  C          0.75879890       0.20272000       0.96538400
   107  C          0.75879890       0.29728000       0.46538400
   108  C          0.24120110       0.79728000       0.03461600
   109  H          0.21937800       0.60267700       0.56262300
   110  H          0.78062200       0.10267700       0.93737700
   111  H          0.78062200       0.39732300       0.43737700
   112  H          0.21937800       0.89732300       0.06262300
   113  C          0.32337110       0.65732000       0.49539600
   114  C          0.67662890       0.15732000       0.00460400
   115  C          0.67662890       0.34268000       0.50460400
   116  C          0.32337110       0.84268000      -0.00460400
   117  H          0.35543100       0.52620200       0.49710000
   118  H          0.64456900       0.02620200       0.00290000
   119  H          0.64456900       0.47379800       0.50290000
   120  H          0.35543100       0.97379800      -0.00290000
   121  N          0.84752900       0.15707190       0.16655600
   122  N          0.15247100       0.65707190       0.33344400
   123  N          0.15247100       0.84292810       0.83344400
   124  N          0.84752900       0.34292810       0.66655600
   125  H          0.79271500       0.13230000       0.14038000
   126  H          0.20728500       0.63230000       0.35962000
   127  H          0.20728500       0.86770000       0.85962000
   128  H          0.79271500       0.36770000       0.64038000
   129  N          0.01912100       0.87869810       0.12828600
   130  N          0.98087900       0.37869810       0.37171400
   131  N          0.98087900       0.12130190       0.87171400
   132  N          0.01912100       0.62130190       0.62828600
   133  H          0.06911500       0.90970000       0.15939000
   134  H          0.93088500       0.40970000       0.34061000
   135  H          0.93088500       0.09030000       0.84061000
   136  H          0.06911500       0.59030000       0.65939000
   137  C          0.87492120       0.96328000       0.20031700
   138  C          0.12507880       0.46328000       0.29968300
   139  C          0.12507880       0.03672000       0.79968300
   140  C          0.87492120       0.53672000       0.70031700
   141  H          0.80936500       0.90659600       0.21662900
   142  H          0.19063500       0.40659600       0.28337100
   143  H          0.19063500       0.09340400       0.78337100
   144  H          0.80936500       0.59340400       0.71662900
   145  H          0.92558300      -0.00564100       0.23565500
   146  H          0.07441700       0.49435900       0.26434500
   147  H          0.07441700       0.00564100       0.76434500
   148  H          0.92558300       0.50564100       0.73565500
   149  C          0.92480120       0.80108000       0.15976700
   150  C          0.07519880       0.30108000       0.34023300
   151  C          0.07519880       0.19892000       0.84023300
   152  C          0.92480120       0.69892000       0.65976700
   153  H          0.94707400       0.68263300       0.18557200
   154  H          0.05292600       0.18263300       0.31442800
   155  H          0.05292600       0.31736700       0.81442800
   156  H          0.94707400       0.81736700       0.68557200
   157  H          0.87005200       0.75353400       0.12839500
   158  H          0.12994800       0.25353400       0.37160500
   159  H          0.12994800       0.24646600       0.87160500
   160  H          0.87005200       0.74646600       0.62839500
   161  C         -0.01139870       0.06612000       0.09239700
   162  C          0.01139870       0.56612000       0.40760300
   163  C          0.01139870       0.93388000       0.90760300
   164  C         -0.01139870       0.43388000       0.59239700
   165  H          0.93656700       0.02870700       0.05830000
   166  H          0.06343300       0.52870700       0.44170000
   167  H          0.06343300       0.97129300       0.94170000
   168  H          0.93656700       0.47129300       0.55830000
   169  H          0.05271800       0.12191000       0.07424100
   170  H          0.94728200       0.62191000       0.42575900
   171  H          0.94728200       0.87809000       0.92575900
   172  H          0.05271800       0.37809000       0.57424100
   173  C          0.93937120       0.23272000       0.13184700
   174  C          0.06062880       0.73272000       0.36815300
   175  C          0.06062880       0.76728000       0.86815300
   176  C          0.93937120       0.26728000       0.63184700
   177  H         -0.00466900       0.28670100       0.16145800
   178  H          0.00466900       0.78670100       0.33854200
   179  H          0.00466900       0.71329900       0.83854200
   180  H         -0.00466900       0.21329900       0.66145800
   181  H          0.91438100       0.34654900       0.10483800
   182  H          0.08561900       0.84654900       0.39516200
   183  H          0.08561900       0.65345100       0.89516200
   184  H          0.91438100       0.15345100       0.60483800
