data_POCZEO
_symmetry_space_group_name_H-M    'P1'
_symmetry_Int_Tables_number       1
loop_
_symmetry_equiv_pos_site_id
_symmetry_equiv_pos_as_xyz
1 x,y,z
_cell_length_a                   8.30034
_cell_length_b                   18.95731
_cell_length_c                   12.94806
_cell_angle_alpha                90.0
_cell_angle_beta                 98.6352
_cell_angle_gamma                90.0
loop_
_atom_site_label
_atom_site_type_symbol
_atom_site_fract_x
_atom_site_fract_y
_atom_site_fract_z
     1  Br         0.83371200       0.66832200       0.71499200
     2  Br         0.66628800       0.16832200       0.78500800
     3  Br         0.16628800       0.33167800       0.28500800
     4  Br         0.33371200       0.83167800       0.21499200
     5  Br         0.59913200       0.71298200       0.51037200
     6  Br         0.90086800       0.21298200      -0.01037200
     7  Br         0.40086800       0.28701800       0.48962800
     8  Br         0.09913200       0.78701800       0.01037200
     9  Br         0.44849200       0.66477200       0.71101200
    10  Br         0.05150800       0.16477200       0.78898800
    11  Br         0.55150800       0.33522800       0.28898800
    12  Br         0.94849200       0.83522800       0.21101200
    13  O          0.64802000       0.56190800       0.50781110
    14  O          0.85198000       0.06190800      -0.00781110
    15  O          0.35198000       0.43809200       0.49218890
    16  O          0.14802000       0.93809200       0.00781110
    17  O          0.60851170       0.53069700       0.66159100
    18  O          0.89148830       0.03069700       0.83840900
    19  O          0.39148830       0.46930300       0.33840900
    20  O          0.10851170       0.96930300       0.16159100
    21  N          0.62471170       0.57429700       0.59572110
    22  N          0.87528830       0.07429700       0.90427890
    23  N          0.37528830       0.42570300       0.40427890
    24  N          0.12471170       0.92570300       0.09572110
    25  C          0.62350190       0.65306800       0.63101120
    26  C          0.87649810       0.15306800       0.86898880
    27  C          0.37649810       0.34693200       0.36898880
    28  C          0.12350190       0.84693200       0.13101120
    29  N          0.34902150       0.38223700       0.86358900
    30  N          0.15097850       0.88223700       0.63641100
    31  N          0.65097850       0.61776300       0.13641100
    32  N          0.84902150       0.11776300       0.36358900
    33  C          0.33246180       0.30434800       0.88702120
    34  C          0.16753820       0.80434800       0.61297880
    35  C          0.66753820       0.69565200       0.11297880
    36  C          0.83246180       0.19565200       0.38702120
    37  H          0.22020000       0.29540000       0.90090000
    38  H          0.27980000       0.79540000       0.59910000
    39  H          0.77980000       0.70460000       0.09910000
    40  H          0.72020000       0.20460000       0.40090000
    41  H          0.34790000       0.27700000       0.82410000
    42  H          0.15210000       0.77700000       0.67590000
    43  H          0.65210000       0.72300000       0.17590000
    44  H          0.84790000       0.22300000       0.32410000
    45  C          0.45132000       0.27727800       0.97887130
    46  C          0.04868000       0.77727800       0.52112870
    47  C          0.54868000       0.72272200       0.02112870
    48  C          0.95132000       0.22272200       0.47887130
    49  H          0.44340000       0.30640000       0.04140000
    50  H          0.05660000       0.80640000       0.45860000
    51  H          0.55660000       0.69360000       0.95860000
    52  H          0.94340000       0.19360000       0.54140000
    53  H          0.56400000       0.28090000       0.96300000
    54  H          0.93600000       0.78090000       0.53700000
    55  H          0.43600000       0.71910000       0.03700000
    56  H          0.06400000       0.21910000       0.46300000
    57  C          0.41242000       0.20072900       0.00066140
    58  C          0.08758000       0.70072900       0.49933860
    59  C          0.58758000       0.79927100      -0.00066140
    60  C          0.91242000       0.29927100       0.50066140
    61  H          0.41940000       0.17220000       0.93840000
    62  H          0.08060000       0.67220000       0.56160000
    63  H          0.58060000       0.82780000       0.06160000
    64  H          0.91940000       0.32780000       0.43840000
    65  H          0.30200000       0.19760000       0.01850000
    66  H          0.19800000       0.69760000       0.48150000
    67  H          0.69800000       0.80240000       0.98150000
    68  H          0.80200000       0.30240000       0.51850000
    69  H          0.49080000       0.18310000       0.05910000
    70  H          0.00920000       0.68310000       0.44090000
    71  H          0.50920000       0.81690000       0.94090000
    72  H         -0.00920000       0.31690000       0.55910000
    73  C          0.51898170       0.39943800       0.84193110
    74  C         -0.01898170       0.89943800       0.65806890
    75  C          0.48101830       0.60056200       0.15806890
    76  C          0.01898170       0.10056200       0.34193110
    77  H          0.59790000       0.38620000       0.90400000
    78  H          0.90210000       0.88620000       0.59600000
    79  H          0.40210000       0.61380000       0.09600000
    80  H          0.09790000       0.11380000       0.40400000
    81  H          0.52690000       0.45110000       0.83280000
    82  H          0.97310000       0.95110000       0.66720000
    83  H          0.47310000       0.54890000       0.16720000
    84  H          0.02690000       0.04890000       0.33280000
    85  C          0.56909190       0.36351800       0.74709120
    86  C          0.93090810       0.86351800       0.75290880
    87  C          0.43090810       0.63648200       0.25290880
    88  C          0.06909190       0.13648200       0.24709120
    89  H          0.51610000       0.38700000       0.68250000
    90  H         -0.01610000       0.88700000       0.81750000
    91  H          0.48390000       0.61300000       0.31750000
    92  H          0.01610000       0.11300000       0.18250000
    93  H          0.53420000       0.31350000       0.74470000
    94  H          0.96580000       0.81350000       0.75530000
    95  H          0.46580000       0.68650000       0.25530000
    96  H          0.03420000       0.18650000       0.24470000
    97  C          0.75372000       0.36786100       0.75402140
    98  C          0.74628000       0.86786100       0.74597860
    99  C          0.24628000       0.63213900       0.24597860
   100  C          0.25372000       0.13213900       0.25402140
   101  H          0.78710000       0.34560000       0.69230000
   102  H          0.71290000       0.84560000       0.80770000
   103  H          0.21290000       0.65440000       0.30770000
   104  H          0.28710000       0.15440000       0.19230000
   105  H          0.80530000       0.34330000       0.81700000
   106  H          0.69470000       0.84330000       0.68300000
   107  H          0.19470000       0.65670000       0.18300000
   108  H          0.30530000       0.15670000       0.31700000
   109  H          0.78750000       0.41740000       0.75720000
   110  H          0.71250000       0.91740000       0.74280000
   111  H          0.21250000       0.58260000       0.24280000
   112  H          0.28750000       0.08260000       0.25720000
   113  C          0.32329180       0.42624800       0.95744110
   114  C          0.17670820       0.92624800       0.54255890
   115  C          0.67670820       0.57375200       0.04255890
   116  C          0.82329180       0.07375200       0.45744110
   117  H          0.32120000       0.47660000       0.93690000
   118  H          0.17880000       0.97660000       0.56310000
   119  H          0.67880000       0.52340000       0.06310000
   120  H          0.82120000       0.02340000       0.43690000
   121  H          0.41840000       0.41950000       0.01260000
   122  H          0.08160000       0.91950000       0.48740000
   123  H          0.58160000       0.58050000       0.98740000
   124  H          0.91840000       0.08050000       0.51260000
   125  C          0.17013180       0.41063800       0.00399120
   126  C          0.32986820       0.91063800       0.49600880
   127  C          0.82986820       0.58936200      -0.00399120
   128  C          0.67013180       0.08936200       0.50399120
   129  H          0.17610000       0.36260000       0.03430000
   130  H          0.32390000       0.86260000       0.46570000
   131  H          0.82390000       0.63740000       0.96570000
   132  H          0.67610000       0.13740000       0.53430000
   133  H          0.07350000       0.41310000       0.94900000
   134  H          0.42650000       0.91310000       0.55100000
   135  H          0.92650000       0.58690000       0.05100000
   136  H          0.57350000       0.08690000       0.44900000
   137  C          0.15562000       0.46490800       0.08853120
   138  C          0.34438000       0.96490800       0.41146880
   139  C          0.84438000       0.53509200       0.91146880
   140  C          0.65562000       0.03509200       0.58853120
   141  H          0.15860000       0.51240000       0.05910000
   142  H          0.34140000       0.01240000       0.44090000
   143  H          0.84140000       0.48760000       0.94090000
   144  H          0.65860000       0.98760000       0.55910000
   145  H          0.24660000       0.45920000       0.14560000
   146  H          0.25340000       0.95920000       0.35440000
   147  H          0.75340000       0.54080000       0.85440000
   148  H          0.74660000       0.04080000       0.64560000
   149  H          0.05240000       0.45810000       0.11530000
   150  H          0.44760000       0.95810000       0.38470000
   151  H          0.94760000       0.54190000       0.88470000
   152  H          0.55240000       0.04190000       0.61530000
   153  C          0.22310180       0.39876800       0.76921120
   154  C          0.27689820       0.89876800       0.73078880
   155  C          0.77689820       0.60123200       0.23078880
   156  C          0.72310180       0.10123200       0.26921120
   157  H          0.24050000       0.36640000       0.71190000
   158  H          0.25950000       0.86640000       0.78810000
   159  H          0.75950000       0.63360000       0.28810000
   160  H          0.74050000       0.13360000       0.21190000
   161  H          0.11370000       0.38870000       0.78730000
   162  H          0.38630000       0.88870000       0.71270000
   163  H          0.88630000       0.61130000       0.21270000
   164  H          0.61370000       0.11130000       0.28730000
   165  C          0.22432000       0.47385800       0.72916130
   166  C          0.27568000       0.97385800       0.77083870
   167  C          0.77568000       0.52614200       0.27083870
   168  C          0.72432000       0.02614200       0.22916130
   169  H          0.32850000       0.48320000       0.70310000
   170  H          0.17150000       0.98320000       0.79690000
   171  H          0.67150000       0.51680000       0.29690000
   172  H          0.82850000       0.01680000       0.20310000
   173  H          0.21550000       0.50720000       0.78690000
   174  H          0.28450000       0.00720000       0.71310000
   175  H          0.78450000       0.49280000       0.21310000
   176  H          0.71550000      -0.00720000       0.28690000
   177  C          0.08302000       0.48547100       0.64146140
   178  C          0.41698000       0.98547100       0.85853860
   179  C          0.91698000       0.51452900       0.35853860
   180  C          0.58302000       0.01452900       0.14146140
   181  H          0.09040000       0.45170000       0.58510000
   182  H          0.40960000       0.95170000       0.91490000
   183  H          0.90960000       0.54830000       0.41490000
   184  H          0.59040000       0.04830000       0.08510000
   185  H          0.08770000       0.53360000       0.61450000
   186  H          0.41230000       0.03360000       0.88550000
   187  H          0.91230000       0.46640000       0.38550000
   188  H          0.58770000       0.96640000       0.11450000
   189  H          0.97980000       0.47860000       0.66830000
   190  H          0.52020000       0.97860000       0.83170000
   191  H          0.02020000       0.52140000       0.33170000
   192  H          0.47980000       0.02140000       0.16830000
   193  O          0.25329160       0.60077600       0.92798100
   194  O          0.24670840       0.10077600       0.57201900
   195  O          0.74670840       0.39922400       0.07201900
   196  O          0.75329160       0.89922400       0.42798100
   197  N          0.13838190       0.69691800       0.82497120
   198  N          0.36161810       0.19691800       0.67502880
   199  N          0.86161810       0.30308200       0.17502880
   200  N          0.63838190       0.80308200       0.32497120
   201  C          0.19223180       0.65061800       0.87363120
   202  C          0.30776820       0.15061800       0.62636880
   203  C          0.80776820       0.34938200       0.12636880
   204  C          0.69223180       0.84938200       0.37363120
