data_PODKEC
_symmetry_space_group_name_H-M    'P1'
_symmetry_Int_Tables_number       1
loop_
_symmetry_equiv_pos_site_id
_symmetry_equiv_pos_as_xyz
1 x,y,z
_cell_length_a                   3.9392
_cell_length_b                   14.2026
_cell_length_c                   13.3915
_cell_angle_alpha                90.0
_cell_angle_beta                 95.02919
_cell_angle_gamma                90.0
loop_
_atom_site_label
_atom_site_type_symbol
_atom_site_fract_x
_atom_site_fract_y
_atom_site_fract_z
     1  O          0.09914000       0.61281700       0.04140800
     2  O          0.90086000       0.11281700       0.45859200
     3  O          0.90086000       0.38718300       0.95859200
     4  O          0.09914000       0.88718300       0.54140800
     5  H          0.12150000       0.63750000       0.09690000
     6  H          0.87850000       0.13750000       0.40310000
     7  H          0.87850000       0.36250000       0.90310000
     8  H          0.12150000       0.86250000       0.59690000
     9  O          0.95686000       0.48793800       0.12796800
    10  O          0.04314000       0.98793800       0.37203200
    11  O          0.04314000       0.51206200       0.87203200
    12  O          0.95686000       0.01206200       0.62796800
    13  C          0.01434000       0.52718100       0.05023110
    14  C         -0.01434000       0.02718100       0.44976890
    15  C         -0.01434000       0.47281900       0.94976890
    16  C          0.01434000       0.97281900       0.55023110
    17  N          0.21364000       0.80847900       0.32109100
    18  N          0.78636000       0.30847900       0.17890900
    19  N          0.78636000       0.19152100       0.67890900
    20  N          0.21364000       0.69152100       0.82109100
    21  H          0.18140000       0.86160000       0.34970000
    22  H          0.81860000       0.36160000       0.15030000
    23  H          0.81860000       0.13840000       0.65030000
    24  H          0.18140000       0.63840000       0.84970000
    25  N          0.20114000       0.70258900       0.20970100
    26  N          0.79886000       0.20258900       0.29029900
    27  N          0.79886000       0.29741100       0.79029900
    28  N          0.20114000       0.79741100       0.70970100
    29  N          0.10454000       0.78895100       0.22695100
    30  N          0.89546000       0.28895100       0.27304900
    31  N          0.89546000       0.21104900       0.77304900
    32  N          0.10454000       0.71104900       0.72695100
    33  C          0.54194000       0.72032120       0.46334130
    34  C          0.45806000       0.22032120       0.03665870
    35  C          0.45806000       0.27967880       0.53665870
    36  C          0.54194000       0.77967880       0.96334130
    37  H          0.55000000       0.76690000       0.51230000
    38  H          0.45000000       0.26690000       0.98770000
    39  H          0.45000000       0.23310000       0.48770000
    40  H          0.55000000       0.73310000       0.01230000
    41  C          0.38224000       0.73489100       0.36709120
    42  C          0.61776000       0.23489100       0.13290880
    43  C          0.61776000       0.26510900       0.63290880
    44  C          0.38224000       0.76510900       0.86709120
    45  C          0.37424000       0.66579100       0.29357110
    46  C          0.62576000       0.16579100       0.20642890
    47  C          0.62576000       0.33420900       0.70642890
    48  C          0.37424000       0.83420900       0.79357110
    49  C          0.52285000       0.57757110       0.31260130
    50  C          0.47715000       0.07757110       0.18739870
    51  C          0.47715000       0.42242890       0.68739870
    52  C          0.52285000       0.92242890       0.81260130
    53  H          0.51790000       0.53080000       0.26390000
    54  H          0.48210000       0.03080000       0.23610000
    55  H          0.48210000       0.46920000       0.73610000
    56  H          0.51790000       0.96920000       0.76390000
    57  C          0.68424000       0.63422140       0.48093140
    58  C          0.31576000       0.13422140       0.01906860
    59  C          0.31576000       0.36577860       0.51906860
    60  C          0.68424000       0.86577860       0.98093140
    61  H          0.79100000       0.62130000       0.54410000
    62  H          0.20900000       0.12130000       0.95590000
    63  H          0.20900000       0.37870000       0.45590000
    64  H          0.79100000       0.87870000       0.04410000
    65  C          0.67585000       0.56403130       0.40699140
    66  C          0.32415000       0.06403130       0.09300860
    67  C          0.32415000       0.43596870       0.59300860
    68  C          0.67585000       0.93596870       0.90699140
    69  H          0.77790000       0.50630000       0.42290000
    70  H          0.22210000       0.00630000       0.07710000
    71  H          0.22210000       0.49370000       0.57710000
    72  H          0.77790000      -0.00630000       0.92290000
