data_POHDUO
_symmetry_space_group_name_H-M    'P1'
_symmetry_Int_Tables_number       1
loop_
_symmetry_equiv_pos_site_id
_symmetry_equiv_pos_as_xyz
1 x,y,z
_cell_length_a                   18.214912
_cell_length_b                   12.73159
_cell_length_c                   7.05936
_cell_angle_alpha                90.0
_cell_angle_beta                 100.1763
_cell_angle_gamma                90.0
loop_
_atom_site_label
_atom_site_type_symbol
_atom_site_fract_x
_atom_site_fract_y
_atom_site_fract_z
     1  O          0.13548600       0.66988100       0.00482000
     2  O          0.86451400       0.16988100       0.49518000
     3  O          0.86451400       0.33011900      -0.00482000
     4  O          0.13548600       0.83011900       0.50482000
     5  H          0.09090000       0.68250000       0.97250000
     6  H          0.90910000       0.18250000       0.52750000
     7  H          0.90910000       0.31750000       0.02750000
     8  H          0.09090000       0.81750000       0.47250000
     9  O          0.11386700       0.56371900       0.75338190
    10  O          0.88613300       0.06371900       0.74661810
    11  O          0.88613300       0.43628100       0.24661810
    12  O          0.11386700       0.93628100       0.25338190
    13  O          0.37582700       0.79498100       0.86902000
    14  O          0.62417300       0.29498100       0.63098000
    15  O          0.62417300       0.20501900       0.13098000
    16  O          0.37582700       0.70501900       0.36902000
    17  O          0.36344700       0.45571100       0.66102000
    18  O          0.63655300       0.95571100       0.83898000
    19  O          0.63655300       0.54428900       0.33898000
    20  O          0.36344700       0.04428900       0.16102000
    21  N          0.35069700       0.62445110       0.76912000
    22  N          0.64930300       0.12445110       0.73088000
    23  N          0.64930300       0.37554890       0.23088000
    24  N          0.35069700       0.87554890       0.26912000
    25  C          0.15628900       0.60756130       0.88353000
    26  C          0.84371100       0.10756130       0.61647000
    27  C          0.84371100       0.39243870       0.11647000
    28  C          0.15628900       0.89243870       0.38353000
    29  C          0.23927900       0.59003160       0.90933000
    30  C          0.76072100       0.09003160       0.59067000
    31  C          0.76072100       0.40996840       0.09067000
    32  C          0.23927900       0.90996840       0.40933000
    33  H          0.26370000       0.62630000       0.02410000
    34  H          0.73630000       0.12630000       0.47590000
    35  H          0.73630000       0.37370000       0.97590000
    36  H          0.26370000       0.87370000       0.52410000
    37  H          0.24990000       0.51560000       0.92620000
    38  H          0.75010000       0.01560000       0.57380000
    39  H          0.75010000       0.48440000       0.07380000
    40  H          0.24990000       0.98440000       0.42620000
    41  C          0.26964900       0.62958150       0.73823000
    42  C          0.73035100       0.12958150       0.76177000
    43  C          0.73035100       0.37041850       0.26177000
    44  C          0.26964900       0.87041850       0.23823000
    45  H          0.24930000       0.58790000       0.62620000
    46  H          0.75070000       0.08790000       0.87380000
    47  H          0.75070000       0.41210000       0.37380000
    48  H          0.24930000       0.91210000       0.12620000
    49  H          0.25390000       0.70170000       0.71240000
    50  H          0.74610000       0.20170000       0.78760000
    51  H          0.74610000       0.29830000       0.28760000
    52  H          0.25390000       0.79830000       0.21240000
    53  C          0.39681900       0.70887130       0.82942000
    54  C          0.60318100       0.20887130       0.67058000
    55  C          0.60318100       0.29112870       0.17058000
    56  C          0.39681900       0.79112870       0.32942000
    57  C          0.47420800       0.67118130       0.83252000
    58  C          0.52579200       0.17118130       0.66748000
    59  C          0.52579200       0.32881870       0.16748000
    60  C          0.47420800       0.82881870       0.33252000
    61  C          0.54162100       0.72218150       0.88343000
    62  C          0.45837900       0.22218150       0.61657000
    63  C          0.45837900       0.27781850       0.11657000
    64  C          0.54162100       0.77781850       0.38343000
    65  H          0.54410000       0.79090000       0.92860000
    66  H          0.45590000       0.29090000       0.57140000
    67  H          0.45590000       0.20910000       0.07140000
    68  H          0.54410000       0.70910000       0.42860000
    69  C          0.60535100       0.66708180       0.86463000
    70  C          0.39464900       0.16708180       0.63537000
    71  C          0.39464900       0.33291820       0.13537000
    72  C          0.60535100       0.83291820       0.36463000
    73  H          0.65160000       0.69960000       0.89700000
    74  H          0.34840000       0.19960000       0.60300000
    75  H          0.34840000       0.30040000       0.10300000
    76  H          0.65160000       0.80040000       0.39700000
    77  C          0.60168100       0.56520180       0.79893000
    78  C          0.39831900       0.06520180       0.70107000
    79  C          0.39831900       0.43479820       0.20107000
    80  C          0.60168100       0.93479820       0.29893000
    81  H          0.64550000       0.53030000       0.78730000
    82  H          0.35450000       0.03030000       0.71270000
    83  H          0.35450000       0.46970000       0.21270000
    84  H          0.64550000       0.96970000       0.28730000
    85  C          0.53406100       0.51348160       0.74953000
    86  C          0.46593900       0.01348160       0.75047000
    87  C          0.46593900       0.48651840       0.25047000
    88  C          0.53406100       0.98651840       0.24953000
    89  H          0.53160000       0.44440000       0.70600000
    90  H          0.46840000       0.94440000       0.79400000
    91  H          0.46840000       0.55560000       0.29400000
    92  H          0.53160000       0.05560000       0.20600000
    93  C          0.47055800       0.56867130       0.76752000
    94  C          0.52944200       0.06867130       0.73248000
    95  C          0.52944200       0.43132870       0.23248000
    96  C          0.47055800       0.93132870       0.26752000
    97  C          0.39079900       0.53734130       0.72352000
    98  C          0.60920100       0.03734130       0.77648000
    99  C          0.60920100       0.46265870       0.27648000
   100  C          0.39079900       0.96265870       0.22352000
   101  N          0.07915700       0.14362110       0.17821190
   102  N          0.92084300       0.64362110       0.32178810
   103  N          0.92084300       0.85637890       0.82178810
   104  N          0.07915700       0.35637890       0.67821190
   105  H          0.09670000       0.08110000       0.19810000
   106  H          0.90330000       0.58110000       0.30190000
   107  H          0.90330000       0.91890000       0.80190000
   108  H          0.09670000       0.41890000       0.69810000
   109  N         -0.00073700       0.27066110       0.08452000
   110  N          0.00073700       0.77066110       0.41548000
   111  N          0.00073700       0.72933890       0.91548000
   112  N         -0.00073700       0.22933890       0.58452000
   113  C          0.01021900       0.16904140       0.09552000
   114  C          0.98978100       0.66904140       0.40448000
   115  C          0.98978100       0.83095860       0.90448000
   116  C          0.01021900       0.33095860       0.59552000
   117  H          0.97360000       0.11980000       0.05020000
   118  H          0.02640000       0.61980000       0.44980000
   119  H          0.02640000       0.88020000       0.94980000
   120  H          0.97360000       0.38020000       0.55020000
   121  C          0.11730900       0.23560140       0.22612000
   122  C          0.88269100       0.73560140       0.27388000
   123  C          0.88269100       0.76439860       0.77388000
   124  C          0.11730900       0.26439860       0.72612000
   125  C          0.19031100       0.25639190       0.31383000
   126  C          0.80968900       0.75639190       0.18617000
   127  C          0.80968900       0.74360810       0.68617000
   128  C          0.19031100       0.24360810       0.81383000
   129  H          0.22430000       0.20260000       0.35220000
   130  H          0.77570000       0.70260000       0.14780000
   131  H          0.77570000       0.79740000       0.64780000
   132  H          0.22430000       0.29740000       0.85220000
   133  C          0.20983110       0.35982000       0.34113000
   134  C          0.79016890       0.85982000       0.15887000
   135  C          0.79016890       0.64018000       0.65887000
   136  C          0.20983110       0.14018000       0.84113000
   137  H          0.25800000       0.37660000       0.40110000
   138  H          0.74200000       0.87660000       0.09890000
   139  H          0.74200000       0.62340000       0.59890000
   140  H          0.25800000       0.12340000       0.90110000
   141  C          0.15958130       0.44044190       0.28163000
   142  C          0.84041870       0.94044190       0.21837000
   143  C          0.84041870       0.55955810       0.71837000
   144  C          0.15958130       0.05955810       0.78163000
   145  H          0.17520000       0.50970000       0.30210000
   146  H          0.82480000       0.00970000       0.19790000
   147  H          0.82480000       0.49030000       0.69790000
   148  H          0.17520000      -0.00970000       0.80210000
   149  C          0.08760110       0.42074150       0.19343000
   150  C          0.91239890       0.92074150       0.30657000
   151  C          0.91239890       0.57925850       0.80657000
   152  C          0.08760110       0.07925850       0.69343000
   153  H          0.05440000       0.47500000       0.15300000
   154  H          0.94560000       0.97500000       0.34700000
   155  H          0.94560000       0.52500000       0.84700000
   156  H          0.05440000       0.02500000       0.65300000
   157  C          0.06645800       0.31601130       0.16702000
   158  C          0.93354200       0.81601130       0.33298000
   159  C          0.93354200       0.68398870       0.83298000
   160  C          0.06645800       0.18398870       0.66702000
