data_POJHUS
_symmetry_space_group_name_H-M    'P1'
_symmetry_Int_Tables_number       1
loop_
_symmetry_equiv_pos_site_id
_symmetry_equiv_pos_as_xyz
1 x,y,z
_cell_length_a                   7.435213
_cell_length_b                   17.0323
_cell_length_c                   17.3613
_cell_angle_alpha                102.7752
_cell_angle_beta                 93.2382
_cell_angle_gamma                98.9792
loop_
_atom_site_label
_atom_site_type_symbol
_atom_site_fract_x
_atom_site_fract_y
_atom_site_fract_z
     1  C          0.66983000       0.01437130       0.42963140
     2  C          0.33017000       0.98562870       0.57036860
     3  C          0.68933000       0.92403130       0.39784130
     4  C          0.31067000       0.07596870       0.60215870
     5  C          0.48223000       0.92232130       0.28247140
     6  C          0.51777000       0.07767870       0.71752860
     7  C          0.40333000       0.88137160       0.20661160
     8  C          0.59667000       0.11862840       0.79338840
     9  H          0.38830000       0.82470000       0.19110000
    10  H          0.61170000       0.17530000       0.80890000
    11  C          0.34754000       0.92548180       0.15453180
    12  C          0.65246000       0.07451820       0.84546820
    13  H          0.29580000       0.89780000       0.10390000
    14  H          0.70420000       0.10220000       0.89610000
    15  C          0.36654000       0.00871180       0.17562170
    16  C          0.63346000      -0.00871180       0.82437830
    17  H          0.32990000       0.03720000       0.13930000
    18  H          0.67010000       0.96280000       0.86070000
    19  C          0.44073000       0.05053150       0.25141150
    20  C          0.55927000       0.94946850       0.74858850
    21  H          0.45160000       0.10710000       0.26670000
    22  H          0.54840000       0.89290000       0.73330000
    23  C          0.49843000       0.00725130       0.30410130
    24  C          0.50157000      -0.00725130       0.69589870
    25  C          0.88783000       0.92382130       0.36751130
    26  C          0.11217000       0.07617870       0.63248870
    27  H          0.96950000       0.97300000       0.39800000
    28  H          0.03050000       0.02700000       0.60200000
    29  C          0.69843000       0.87963140       0.46513140
    30  C          0.30157000       0.12036860       0.53486860
    31  H          0.72690000       0.91860000       0.51600000
    32  H          0.27310000       0.08140000       0.48400000
    33  H          0.58250000       0.84470000       0.46570000
    34  H          0.41750000       0.15530000       0.53430000
    35  C          0.84583000       0.83006130       0.44897130
    36  C          0.15417000       0.16993870       0.55102870
    37  C          0.89464000       0.77124140       0.48489150
    38  C          0.10536000       0.22875860       0.51510850
    39  H          0.83010000       0.75640000       0.52530000
    40  H          0.16990000       0.24360000       0.47470000
    41  C          0.04124000       0.73432160       0.45990160
    42  C          0.95876000       0.26567840       0.54009840
    43  H          0.07590000       0.69450000       0.48370000
    44  H          0.92410000       0.30550000       0.51630000
    45  C          0.13584000       0.75656160       0.39968160
    46  C          0.86416000       0.24343840       0.60031840
    47  H          0.23240000       0.73090000       0.38190000
    48  H          0.76760000       0.26910000       0.61810000
    49  C          0.08633000       0.81665150       0.36634150
    50  C          0.91367000       0.18334850       0.63365850
    51  H          0.15120000       0.83330000       0.32680000
    52  H          0.84880000       0.16670000       0.67320000
    53  C          0.89463000       0.92173130       0.28102130
    54  C          0.10537000       0.07826870       0.71897870
    55  C          0.93603000      -0.00643870       0.25458140
    56  C          0.06397000       0.00643870       0.74541860
    57  C          0.91474000      -0.00616850       0.17508150
    58  C          0.08526000       0.00616850       0.82491850
    59  H          0.94080000       0.04250000       0.15870000
    60  H          0.05920000       0.95750000       0.84130000
    61  C          0.85484000       0.92172170       0.12087150
    62  C          0.14516000       0.07827830       0.87912850
    63  C          0.81974000       0.84851160       0.14373150
    64  C          0.18026000       0.15148840       0.85626850
    65  H          0.78330000       0.79960000       0.10600000
    66  H          0.21670000       0.20040000       0.89400000
    67  C          0.83953000       0.84924140       0.22354140
    68  C          0.16047000       0.15075860       0.77645860
    69  H          0.81530000       0.80020000       0.23920000
    70  H          0.18470000       0.19980000       0.76080000
    71  N          0.57533000       0.04773110       0.38137110
    72  N          0.42467000       0.95226890       0.61862890
    73  N          0.54033000       0.88235110       0.33875120
    74  N          0.45967000       0.11764890       0.66124880
    75  N          0.94282000       0.85144110       0.39126100
    76  N          0.05718000       0.14855890       0.60873900
    77  O          0.74303000       0.05155110       0.49506100
    78  O          0.25697000       0.94844890       0.50493900
    79  Cl         0.01265100       0.08704400       0.32174400
    80  Cl        -0.01265100       0.91295600       0.67825600
    81  Cl         0.82117160       0.92143600       0.02091500
    82  Cl         0.17882840       0.07856400       0.97908500
    83  H          0.57340000       0.10241100       0.39971500
    84  H          0.42660000       0.89758900       0.60028500
    85  H          0.53730000       0.82681000       0.32101400
    86  H          0.46270000       0.17319000       0.67898600
    87  Cl         0.51586120       0.68196400       0.27931500
    88  Cl         0.48413880       0.31803600       0.72068500
    89  C         -0.00233000       0.37550140       0.34685140
    90  C          0.00233000       0.62449860       0.65314860
    91  C          0.10863000       0.42229130       0.29422130
    92  C          0.89137000       0.57770870       0.70577870
    93  C          0.92187000       0.33296150       0.17988140
    94  C          0.07813000       0.66703850       0.82011860
    95  C          0.90166000       0.30704190       0.09753160
    96  C          0.09834000       0.69295810       0.90246840
    97  H          0.94420000       0.34280000       0.06650000
    98  H          0.05580000       0.65720000       0.93350000
    99  C          0.81855000       0.22852000       0.06235190
   100  C          0.18145000       0.77148000       0.93764810
   101  H          0.80620000       0.21120000       0.00730000
   102  H          0.19380000       0.78880000      -0.00730000
   103  C          0.75336000       0.17503190       0.10732000
   104  C          0.24664000       0.82496810       0.89268000
   105  H          0.69620000       0.12220000       0.08260000
   106  H          0.30380000       0.87780000       0.91740000
   107  C          0.77276000       0.19965160       0.18906190
   108  C          0.22724000       0.80034840       0.81093810
   109  H          0.72940000       0.16360000       0.21960000
   110  H          0.27060000       0.83640000       0.78040000
   111  C          0.85787000       0.27901140       0.22524150
   112  C          0.14213000       0.72098860       0.77475850
   113  C          0.30043000       0.39029130       0.28912130
   114  C          0.69957000       0.60970870       0.71087870
   115  H          0.29010000       0.33820000       0.30510000
   116  H          0.70990000       0.66180000       0.69490000
   117  C          0.16293000       0.51332140       0.33514150
   118  C          0.83707000       0.48667860       0.66485850
   119  H          0.16480000       0.54660000       0.29640000
   120  H          0.83520000       0.45340000       0.70360000
   121  H          0.07700000       0.52980000       0.37300000
   122  H          0.92300000       0.47020000       0.62700000
   123  C          0.34783000       0.52252130       0.37601130
   124  C          0.65217000       0.47747870       0.62398870
   125  C          0.44764000       0.58656140       0.43251140
   126  C          0.55236000       0.41343860       0.56748860
   127  H          0.39960000       0.63370000       0.45120000
   128  H          0.60040000       0.36630000       0.54880000
   129  C          0.61954000       0.57954150       0.46080150
   130  C          0.38046000       0.42045850       0.53919850
   131  H          0.68720000       0.62190000       0.49980000
   132  H          0.31280000       0.37810000       0.50020000
   133  C          0.69273000       0.51020170       0.43190150
   134  C          0.30727000       0.48979830       0.56809850
   135  H          0.80970000       0.50610000       0.45060000
   136  H          0.19030000       0.49390000       0.54940000
   137  C          0.59063000       0.44764160       0.37543150
   138  C          0.40937000       0.55235840       0.62456850
   139  H          0.63730000       0.40050000       0.35530000
   140  H          0.36270000       0.59950000       0.64470000
   141  C          0.37113000       0.38117130       0.20848130
   142  C          0.62887000       0.61882870       0.79151870
   143  C          0.36033000       0.30448140       0.15784140
   144  C          0.63967000       0.69551860       0.84215860
   145  C          0.41533000       0.29535160       0.08191140
   146  C          0.58467000       0.70464840       0.91808860
   147  H          0.40740000       0.24370000       0.04870000
   148  H          0.59260000       0.75630000       0.95130000
   149  C          0.48184000       0.36422180       0.05677150
   150  C          0.51816000       0.63577820       0.94322850
   151  C          0.49584000       0.44095180       0.10490170
   152  C          0.50416000       0.55904820       0.89509830
   153  H          0.54150000       0.48690000       0.08680000
   154  H          0.45850000       0.51310000       0.91320000
   155  C          0.44134000       0.44905150       0.18039160
   156  C          0.55866000       0.55094850       0.81960840
   157  H          0.45160000       0.50100000       0.21330000
   158  H          0.54840000       0.49900000       0.78670000
   159  N          0.88167000       0.30743120       0.30891120
   160  N          0.11833000       0.69256880       0.69108880
   161  N          0.00133000       0.41224120       0.21993120
   162  N         -0.00133000       0.58775880       0.78006880
   163  N          0.42212000       0.45528110       0.34950110
   164  N          0.57788000       0.54471890       0.65049890
   165  O          0.01812000       0.39916110       0.41933100
   166  O         -0.01812000       0.60083890       0.58066900
   167  Cl         0.27452900       0.21644300       0.18792400
   168  Cl         0.72547100       0.78355700       0.81207600
   169  Cl         0.54956130       0.35290600       0.96088500
   170  Cl         0.45043870       0.64709400       0.03911500
   171  H          0.81070000       0.28011600       0.34381400
   172  H          0.18930000       0.71988400       0.65618600
   173  H          0.05140000       0.44971600       0.19031600
   174  H          0.94860000       0.55028400       0.80968400
   175  Cl         0.54707900       0.24495400       0.40528400
   176  Cl         0.45292100       0.75504600       0.59471600
   177  C          0.06985000       0.61192000       0.14452000
   178  C          0.93015000       0.38808000       0.85548000
   179  C          0.90583000       0.62043000       0.09884000
   180  C          0.09417000       0.37957000       0.90116000
   181  H          0.89380000       0.67700000       0.10880000
   182  H          0.10620000       0.32300000       0.89120000
   183  H          0.80040000       0.58950000       0.11430000
   184  H          0.19960000       0.41050000       0.88570000
   185  H          0.91560000       0.60020000       0.04330000
   186  H          0.08440000       0.39980000       0.95670000
   187  O          0.11724000       0.54593170       0.14224190
   188  O          0.88276000       0.45406830       0.85775810
   189  O          0.16714000       0.68066160       0.18574180
   190  O          0.83286000       0.31933840       0.81425820
   191  H          0.25620000       0.67100000       0.20970000
   192  H          0.74380000       0.32900000       0.79030000
