data_POJWAP
_symmetry_space_group_name_H-M    'P1'
_symmetry_Int_Tables_number       1
loop_
_symmetry_equiv_pos_site_id
_symmetry_equiv_pos_as_xyz
1 x,y,z
_cell_length_a                   8.3001
_cell_length_b                   16.1912
_cell_length_c                   21.2213
_cell_angle_alpha                108.1674
_cell_angle_beta                 94.0715
_cell_angle_gamma                104.4534
loop_
_atom_site_label
_atom_site_type_symbol
_atom_site_fract_x
_atom_site_fract_y
_atom_site_fract_z
     1  I          0.23093600       0.46590300       0.23440200
     2  I          0.76906400       0.53409700       0.76559800
     3  I          0.14602600       0.29541300       0.25877200
     4  I          0.85397400       0.70458700       0.74122800
     5  I          0.32517600       0.63708300       0.20812300
     6  I          0.67482400       0.36291700       0.79187700
     7  I          0.80043400       0.58618300       0.26881200
     8  I          0.19956600       0.41381700       0.73118800
     9  I          0.70611300       0.40299300       0.29154300
    10  I          0.29388700       0.59700700       0.70845700
    11  I          0.88077400       0.75787300       0.25352200
    12  I          0.11922600       0.24212700       0.74647800
    13  I          0.16715700       0.04027300       0.21588200
    14  I          0.83284300       0.95972700       0.78411800
    15  I          0.50668700       0.09365300       0.16486300
    16  I          0.49331300       0.90634700       0.83513700
    17  I          0.86458300      -0.00219600       0.26404300
    18  I          0.13541700       0.00219600       0.73595700
    19  I          0.45974700       0.91650300       0.30836200
    20  I          0.54025300       0.08349700       0.69163800
    21  I          0.69423600       0.01734300       0.44283200
    22  I          0.30576400       0.98265700       0.55716800
    23  I          0.90053700       0.10583500       0.56956300
    24  I          0.09946300       0.89416500       0.43043700
    25  I          0.76565300       0.04446300       0.98650700
    26  I          0.23434700       0.95553700       0.01349300
    27  I          0.95312400       0.16487300       0.10844300
    28  I          0.04687600       0.83512700       0.89155700
    29  I          0.53651800       0.45871300       0.93599700
    30  I          0.46348200       0.54128700       0.06400300
    31  I          0.54772890       0.47218400       0.43610400
    32  I          0.45227110       0.52781600       0.56389600
    33  N          0.69461000       0.25844000       0.48413000
    34  N          0.30539000       0.74156000       0.51587000
    35  C          0.74251300       0.25856000       0.42534000
    36  C          0.25748700       0.74144000       0.57466000
    37  C          0.88751200       0.31747000       0.42085000
    38  C          0.11248800       0.68253000       0.57915000
    39  H          0.91820000       0.31590000       0.37830000
    40  H          0.08180000       0.68410000       0.62170000
    41  C         -0.01228900       0.37877000       0.47895000
    42  C          0.01228900       0.62123000       0.52105000
    43  H          0.08960000       0.41970000       0.47660000
    44  H          0.91040000       0.58030000       0.52340000
    45  C          0.94191000       0.38146000       0.54075000
    46  C          0.05809000       0.61854000       0.45925000
    47  H          0.00880000       0.42430000       0.58140000
    48  H         -0.00880000       0.57570000       0.41860000
    49  C          0.79341000       0.31835000       0.54034000
    50  C          0.20659000       0.68165000       0.45966000
    51  C          0.73351200       0.31776000       0.60584000
    52  C          0.26648800       0.68224000       0.39416000
    53  H          0.82730000       0.31770000       0.63730000
    54  H          0.17270000       0.68230000       0.36270000
    55  H          0.70000000       0.37350000       0.62620000
    56  H          0.30000000       0.62650000       0.37380000
    57  N          0.45951200       0.14905000       0.38034000
    58  N          0.54048800       0.85095000       0.61966000
    59  H          0.48030000       0.13570000       0.41810000
    60  H          0.51970000       0.86430000       0.58190000
    61  H          0.40780000       0.09560000       0.34660000
    62  H          0.59220000       0.90440000       0.65340000
    63  C          0.42231000       0.25496000       0.60905000
    64  C          0.57769000       0.74504000       0.39095000
    65  H          0.44280000       0.31300000       0.64650000
    66  H          0.55720000       0.68700000       0.35350000
    67  H          0.35160000       0.20600000       0.62220000
    68  H          0.64840000       0.79400000       0.37780000
    69  C          0.33031300       0.26016000       0.54655000
    70  C          0.66968700       0.73984000       0.45345000
    71  H          0.22490000       0.27590000       0.55630000
    72  H          0.77510000       0.72410000       0.44370000
    73  H          0.40190000       0.30790000       0.53240000
    74  H          0.59810000       0.69210000       0.46760000
    75  N          0.29141000       0.17305000       0.49284000
    76  N          0.70859000       0.82695000       0.50716000
    77  H          0.22140000       0.13040000       0.50580000
    78  H          0.77860000       0.86960000       0.49420000
    79  C          0.21091400       0.17178000       0.42946000
    80  C          0.78908600       0.82822000       0.57054000
    81  H          0.13320000       0.21010000       0.43810000
    82  H          0.86680000       0.78990000       0.56190000
    83  H          0.14380000       0.10900000       0.40250000
    84  H          0.85620000       0.89100000       0.59750000
    85  C          0.33611500       0.20528000       0.39216000
    86  C          0.66388500       0.79472000       0.60784000
    87  H          0.39760000       0.26950000       0.41750000
    88  H          0.60240000       0.73050000       0.58250000
    89  H          0.27940000       0.20200000       0.34830000
    90  H          0.72060000       0.79800000       0.65170000
    91  N          0.58687000       0.23634000       0.59573000
    92  N          0.41313000       0.76366000       0.40427000
    93  H          0.57230000       0.19830000       0.55260000
    94  H          0.42770000       0.80170000       0.44740000
    95  H          0.61350000       0.20650000       0.62300000
    96  H          0.38650000       0.79350000       0.37700000
    97  C          0.62361900       0.18896000       0.36294000
    98  C          0.37638100       0.81104000       0.63706000
    99  H          0.60570000       0.21840000       0.32970000
   100  H          0.39430000       0.78160000       0.67030000
   101  H          0.67540000       0.14010000       0.34220000
   102  H          0.32460000       0.85990000       0.65780000
   103  N          0.72722000       0.27454000      -0.00543000
   104  N          0.27278000       0.72546000       0.00543000
   105  C          0.77898900       0.25826000       0.93436000
   106  C          0.22101100       0.74174000       0.06564000
   107  C          0.92398800       0.31227000       0.92396000
   108  C          0.07601200       0.68773000       0.07604000
   109  H          0.95690000       0.29890000       0.88080000
   110  H          0.04310000       0.70110000       0.11920000
   111  C          0.02061100       0.38577000       0.97726000
   112  C         -0.02061100       0.61423000       0.02274000
   113  H          0.12160000       0.42370000       0.97130000
   114  H          0.87840000       0.57630000       0.02870000
   115  C          0.97019000       0.40376000       0.03884000
   116  C          0.02981000       0.59624000       0.96116000
   117  H          0.03430000       0.45430000       0.07630000
   118  H          0.96570000       0.54570000       0.92370000
   119  C          0.82381000       0.34625000       0.04494000
   120  C          0.17619000       0.65375000       0.95506000
   121  C          0.75571000       0.36565000       0.11154000
   122  C          0.24429000       0.63435000       0.88846000
   123  H          0.84870000       0.38030000       0.14880000
   124  H          0.15130000       0.61970000       0.85120000
   125  H          0.71220000       0.41890000       0.11920000
   126  H          0.28780000       0.58110000       0.88080000
   127  N          0.61742000       0.28594000       0.11173000
   128  N          0.38258000       0.71406000       0.88827000
   129  H          0.64720000       0.26970000       0.14730000
   130  H          0.35280000       0.73030000       0.85270000
   131  H          0.60990000       0.23850000       0.07370000
   132  H          0.39010000       0.76150000       0.92630000
   133  C          0.44579000       0.30056000       0.11575000
   134  C          0.55421000       0.69944000       0.88425000
   135  H          0.45790000       0.36360000       0.14470000
   136  H          0.54210000       0.63640000       0.85530000
   137  H          0.37890000       0.25910000       0.13640000
   138  H          0.62110000       0.74090000       0.86360000
   139  C          0.35409000       0.28326000       0.04675000
   140  C          0.64591000       0.71674000       0.95325000
   141  H          0.24490000       0.29700000       0.05060000
   142  H          0.75510000       0.70300000       0.94940000
   143  H          0.42210000       0.32320000       0.02540000
   144  H          0.57790000       0.67680000       0.97460000
   145  N          0.32491000       0.18834000       0.00514000
   146  N          0.67509000       0.81166000      -0.00514000
   147  H          0.25590000       0.15240000       0.02370000
   148  H          0.74410000       0.84760000       0.97630000
   149  C          0.24718700       0.16706000       0.93534000
   150  C          0.75281300       0.83294000       0.06466000
   151  H          0.16440000       0.20140000       0.93460000
   152  H          0.83560000       0.79860000       0.06540000
   153  H          0.18690000       0.10150000       0.91560000
   154  H          0.81310000       0.89850000       0.08440000
   155  C          0.38038600       0.19146000       0.89495000
   156  C          0.61961400       0.80854000       0.10505000
   157  H          0.32850000       0.17620000       0.84780000
   158  H          0.67150000       0.82380000       0.15220000
   159  H          0.43780000       0.25740000       0.91350000
   160  H          0.56220000       0.74260000       0.08650000
   161  N          0.50438900       0.13985000       0.89766000
   162  N          0.49561100       0.86015000       0.10234000
   163  H          0.45800000       0.08150000       0.86970000
   164  H          0.54200000       0.91850000       0.13030000
   165  H          0.52260000       0.13860000       0.94010000
   166  H          0.47740000       0.86140000       0.05990000
   167  C          0.67028500       0.17626000       0.87886000
   168  C          0.32971500       0.82374000       0.12114000
   169  H          0.65150000       0.19220000       0.83820000
   170  H          0.34850000       0.80780000       0.16180000
   171  H          0.72920000       0.12850000       0.86810000
   172  H          0.27080000       0.87150000       0.13190000
