data_POKCIB
_symmetry_space_group_name_H-M    'P1'
_symmetry_Int_Tables_number       1
loop_
_symmetry_equiv_pos_site_id
_symmetry_equiv_pos_as_xyz
1 x,y,z
_cell_length_a                   11.1962
_cell_length_b                   11.8353
_cell_length_c                   13.3922
_cell_angle_alpha                90.0
_cell_angle_beta                 110.001
_cell_angle_gamma                90.0
loop_
_atom_site_label
_atom_site_type_symbol
_atom_site_fract_x
_atom_site_fract_y
_atom_site_fract_z
     1  I          0.27812500       0.97099500       0.09798400
     2  I          0.22187500       0.47099500       0.90201600
     3  I          0.72187500       0.02900500       0.90201600
     4  I          0.77812500       0.52900500       0.09798400
     5  I          0.64098500       0.88043500       0.19766400
     6  I          0.85901500       0.38043500       0.80233600
     7  I          0.35901500       0.11956500       0.80233600
     8  I          0.14098500       0.61956500       0.19766400
     9  S          0.31782000       0.91418000       0.34552000
    10  S          0.18218000       0.41418000       0.65448000
    11  S          0.68218000       0.08582000       0.65448000
    12  S          0.81782000       0.58582000       0.34552000
    13  S          0.58462000       0.84818000       0.41442000
    14  S          0.91538000       0.34818000       0.58558000
    15  S          0.41538000       0.15182000       0.58558000
    16  S          0.08462000       0.65182000       0.41442000
    17  S          0.31812000       0.86928000       0.58622000
    18  S          0.18188000       0.36928000       0.41378000
    19  S          0.68188000       0.13072000       0.41378000
    20  S          0.81812000       0.63072000       0.58622000
    21  S          0.58602000       0.80238000       0.64852000
    22  S          0.91398000       0.30238000       0.35148000
    23  S          0.41398000       0.19762000       0.35148000
    24  S          0.08602000       0.69762000       0.64852000
    25  O          0.31985000       0.81555000       0.77874000
    26  O          0.18015000       0.31555000       0.22126000
    27  O          0.68015000       0.18445000       0.22126000
    28  O          0.81985000       0.68445000       0.77874000
    29  O          0.58426000       0.74715000       0.83944000
    30  O          0.91574000       0.24715000       0.16056000
    31  O          0.41574000       0.25285000       0.16056000
    32  O          0.08426000       0.75285000       0.83944000
    33  C          0.39168000       0.91283000       0.24946000
    34  C          0.10832000       0.41283000       0.75054000
    35  C          0.60832000       0.08717000       0.75054000
    36  C          0.89168000       0.58717000       0.24946000
    37  C          0.51228000       0.88184000       0.28006000
    38  C         -0.01228000       0.38184000       0.71994000
    39  C          0.48772000       0.11816000       0.71994000
    40  C          0.01228000       0.61816000       0.28006000
    41  C          0.45067000       0.86874000       0.44856000
    42  C          0.04933000       0.36874000       0.55144000
    43  C          0.54933000       0.13126000       0.55144000
    44  C          0.95067000       0.63126000       0.44856000
    45  C          0.45087000       0.84934000       0.55096000
    46  C          0.04913000       0.34934000       0.44904000
    47  C          0.54913000       0.15066000       0.44904000
    48  C          0.95087000       0.65066000       0.55096000
    49  C          0.39107000       0.82053000       0.71506000
    50  C          0.10893000       0.32053000       0.28494000
    51  C          0.60893000       0.17947000       0.28494000
    52  C          0.89107000       0.67947000       0.71506000
    53  C          0.51447000       0.79104000       0.74316000
    54  C         -0.01447000       0.29104000       0.25684000
    55  C          0.48553000       0.20896000       0.25684000
    56  C          0.01447000       0.70896000       0.74316000
    57  C          0.40119000       0.79981000       0.88827000
    58  C          0.09881000       0.29981000       0.11173000
    59  C          0.59881000       0.20019000       0.11173000
    60  C          0.90119000       0.70019000       0.88827000
    61  C          0.50314000       0.71881000       0.90088000
    62  C         -0.00314000       0.21881000       0.09912000
    63  C          0.49686000       0.28119000       0.09912000
    64  C          0.00314000       0.78119000       0.90088000
    65  H          0.43800000       0.87070000       0.91560000
    66  H          0.06200000       0.37070000       0.08440000
    67  H          0.56200000       0.12930000       0.08440000
    68  H          0.93800000       0.62930000       0.91560000
    69  H          0.35040000       0.77400000       0.92780000
    70  H          0.14960000       0.27400000       0.07220000
    71  H          0.64960000       0.22600000       0.07220000
    72  H          0.85040000       0.72600000       0.92780000
    73  H          0.46600000       0.64680000       0.87840000
    74  H          0.03400000       0.14680000       0.12160000
    75  H          0.53400000       0.35320000       0.12160000
    76  H          0.96600000       0.85320000       0.87840000
    77  H          0.55400000       0.71570000       0.97380000
    78  H          0.94600000       0.21570000       0.02620000
    79  H          0.44600000       0.28430000       0.02620000
    80  H          0.05400000       0.78430000       0.97380000
    81  I          0.40763600       0.59411400       0.13238500
    82  I          0.09236400       0.09411400       0.86761500
    83  I          0.59236400       0.40588600       0.86761500
    84  I          0.90763600       0.90588600       0.13238500
    85  I          0.48112600       0.52391400       0.39298600
    86  I          0.01887400       0.02391400       0.60701400
    87  I          0.51887400       0.47608600       0.60701400
    88  I          0.98112600       0.97608600       0.39298600
