data_POQNIT
_symmetry_space_group_name_H-M    'P1'
_symmetry_Int_Tables_number       1
loop_
_symmetry_equiv_pos_site_id
_symmetry_equiv_pos_as_xyz
1 x,y,z
_cell_length_a                   8.359017
_cell_length_b                   13.2883
_cell_length_c                   16.1873
_cell_angle_alpha                82.123
_cell_angle_beta                 75.173
_cell_angle_gamma                72.323
loop_
_atom_site_label
_atom_site_type_symbol
_atom_site_fract_x
_atom_site_fract_y
_atom_site_fract_z
     1  Br         0.64400500       0.95525300       0.36827200
     2  Br         0.35599500       0.04474700       0.63172800
     3  N          0.01203000       0.69392000       0.48711150
     4  N          0.98797000       0.30608000       0.51288850
     5  C          0.86666000       0.76073000       0.52562000
     6  C          0.13334000       0.23927000       0.47438000
     7  H          0.82140000       0.82380000       0.49600000
     8  H          0.17860000       0.17620000       0.50400000
     9  C          0.78096000       0.73993000       0.60752000
    10  C          0.21904000       0.26007000       0.39248000
    11  H          0.67850000       0.78770000       0.63260000
    12  H          0.32150000       0.21230000       0.36740000
    13  C          0.84746000       0.64883000       0.65122000
    14  C          0.15254000       0.35117000       0.34878000
    15  H          0.78990000       0.63380000       0.70670000
    16  H          0.21010000       0.36620000       0.29330000
    17  C          0.00264000       0.57692000       0.61365190
    18  C         -0.00264000       0.42308000       0.38634810
    19  C          0.07735000       0.48143000       0.65622000
    20  C          0.92265000       0.51857000       0.34378000
    21  H          0.02410000       0.46420000       0.71200000
    22  H          0.97590000       0.53580000       0.28800000
    23  C          0.22636000       0.41453000       0.61663000
    24  C          0.77364000       0.58547000       0.38337000
    25  H          0.27480000       0.35180000       0.64560000
    26  H          0.72520000       0.64820000       0.35440000
    27  C          0.30805000       0.43793000       0.53333000
    28  C          0.69195000       0.56207000       0.46667000
    29  H          0.41040000       0.39060000       0.50740000
    30  H          0.58960000       0.60940000       0.49260000
    31  C          0.24044000       0.52933000       0.48862000
    32  C          0.75956000       0.47067000       0.51138000
    33  H          0.29560000       0.54410000       0.43260000
    34  H          0.70440000       0.45590000       0.56740000
    35  C          0.08684000       0.60062000       0.52834180
    36  C          0.91316000       0.39938000       0.47165820
    37  C          0.09384000       0.72453000       0.39852180
    38  C          0.90616000       0.27547000       0.60147820
    39  H          0.00670000       0.77470000       0.37230000
    40  H         -0.00670000       0.22530000       0.62770000
    41  H          0.14020000       0.66230000       0.36550000
    42  H          0.85980000       0.33770000       0.63450000
    43  C          0.23584000       0.77302000       0.39524180
    44  C          0.76416000       0.22698000       0.60475820
    45  C          0.26264000       0.80693000       0.46591190
    46  C          0.73736000       0.19307000       0.53408810
    47  H          0.19720000       0.79360000       0.51990000
    48  H          0.80280000       0.20640000       0.48010000
    49  C          0.38445000       0.85993000       0.45832000
    50  C          0.61555000       0.14007000       0.54168000
    51  H          0.40110000       0.88220000       0.50670000
    52  H          0.59890000       0.11780000       0.49330000
    53  C          0.48094000       0.87952000       0.37872000
    54  C          0.51906000       0.12048000       0.62128000
    55  C          0.46004000       0.84452000       0.30699190
    56  C          0.53996000       0.15548000       0.69300810
    57  H          0.52690000       0.85720000       0.25330000
    58  H          0.47310000       0.14280000       0.74670000
    59  C          0.33904000       0.79062000       0.31563180
    60  C          0.66096000       0.20938000       0.68436820
    61  H          0.32620000       0.76550000       0.26750000
    62  H          0.67380000       0.23450000       0.73250000
    63  N          0.34274000       0.71993000       0.67928000
    64  N          0.65726000       0.28007000       0.32072000
    65  N          0.90976000       0.62262000       0.84309820
    66  N          0.09024000       0.37738000       0.15690180
    67  N          0.78164000       0.63752000       0.11002000
    68  N          0.21836000       0.36248000       0.88998000
    69  N          0.35394000       0.53112000       0.26349170
    70  N          0.64606000       0.46888000       0.73650830
    71  C          0.28164000       0.69163000       0.74618000
    72  C          0.71836000       0.30837000       0.25382000
    73  C          0.20104000       0.65742000       0.82986820
    74  C          0.79896000       0.34258000       0.17013180
    75  C          0.03994000       0.63762000       0.83734820
    76  C          0.96006000       0.36238000       0.16265180
    77  C          0.43393000       0.66582000       0.89422830
    78  C          0.56607000       0.33418000       0.10577170
    79  H          0.49070000       0.69060000       0.84190000
    80  H          0.50930000       0.30940000       0.15810000
    81  C          0.27503000       0.64285190       0.90014830
    82  C          0.72497000       0.35714810       0.09985170
    83  C          0.19243000       0.60576190       0.98232830
    84  C          0.80757000       0.39423810       0.01767170
    85  H          0.08800000       0.59090000       0.98870000
    86  H          0.91200000       0.40910000       0.01130000
    87  C          0.65454000       0.62122000       0.11119180
    88  C          0.34546000       0.37878000       0.88880820
    89  C          0.49533000       0.59892000       0.11519170
    90  C          0.50467000       0.40108000       0.88480830
    91  C          0.41604000       0.56072000       0.19702000
    92  C          0.58396000       0.43928000       0.80298000
    93  C          0.50323000       0.65242190       0.96286840
    94  C          0.49677000       0.34757810       0.03713160
    95  H          0.60670000       0.66840000       0.95680000
    96  H          0.39330000       0.33160000       0.04320000
    97  C          0.42183000       0.61435190       0.04452160
    98  C          0.57817000       0.38564810       0.95547840
    99  C          0.26313000       0.59182000       0.05083170
   100  C          0.73687000       0.40818000       0.94916830
   101  H          0.20670000       0.56700000       0.10330000
   102  H          0.79330000       0.43300000       0.89670000
   103  N          0.98734000       0.21672000       0.78711820
   104  N          0.01266000       0.78328000       0.21288180
   105  N          0.54284000       0.11622000       0.92995810
   106  N          0.45716000       0.88378000       0.07004190
   107  N          0.40954000       0.11842000       0.20748180
   108  N          0.59046000       0.88158000       0.79251820
   109  N          0.97214000       0.02263000       0.36816190
   110  N          0.02786000       0.97737000       0.63183810
   111  C          0.91844000       0.18522000       0.85068000
   112  C          0.08156000       0.81478000       0.14932000
   113  C          0.83164000       0.14692000       0.93094830
   114  C          0.16836000       0.85308000       0.06905170
   115  C          0.67114000       0.12922000       0.93190810
   116  C          0.32886000       0.87078000       0.06809190
   117  C          0.06433000       0.14712000      -0.00348170
   118  C          0.93567000       0.85288000       0.00348170
   119  H          0.12330000       0.17030000       0.94410000
   120  H          0.87670000       0.82970000       0.05590000
   121  C          0.90153000       0.12922000       0.00262170
   122  C          0.09847000       0.87078000      -0.00262170
   123  C          0.81423000       0.09452000       0.08436170
   124  C          0.18577000       0.90548000       0.91563830
   125  H          0.70800000       0.08220000       0.09020000
   126  H          0.29200000       0.91780000       0.90980000
   127  C          0.28154000       0.10172000       0.21164180
   128  C          0.71846000       0.89828000       0.78835820
   129  C          0.11904000       0.08212000       0.21836180
   130  C          0.88096000       0.91788000       0.78163820
   131  C          0.03624000       0.04942000       0.30152000
   132  C          0.96376000       0.95058000       0.69848000
   133  C          0.13414000       0.13112000       0.06534170
   134  C          0.86586000       0.86888000       0.93465830
   135  H          0.24100000       0.14250000       0.05930000
   136  H          0.75900000       0.85750000       0.94070000
   137  C          0.04693000       0.09712000       0.14734170
   138  C          0.95307000       0.90288000       0.85265830
   139  C          0.88373000       0.07932000       0.15326170
   140  C          0.11627000       0.92068000       0.84673830
   141  H          0.82420000       0.05670000       0.20580000
   142  H          0.17580000       0.94330000       0.79420000
