data_POQPIX02
_symmetry_space_group_name_H-M    'P1'
_symmetry_Int_Tables_number       1
loop_
_symmetry_equiv_pos_site_id
_symmetry_equiv_pos_as_xyz
1 x,y,z
_cell_length_a                   8.78446
_cell_length_b                   9.76526
_cell_length_c                   12.86698
_cell_angle_alpha                65.7921
_cell_angle_beta                 63.4381
_cell_angle_gamma                64.3921
loop_
_atom_site_label
_atom_site_type_symbol
_atom_site_fract_x
_atom_site_fract_y
_atom_site_fract_z
     1  Br         0.18081000       0.82431000       0.06581000
     2  Br         0.82261000       0.17901000       0.93009000
     3  C          0.58331300       0.38631200       0.08361000
     4  C          0.44041400       0.52951200       0.11231000
     5  C          0.35571400       0.63771200       0.03411000
     6  C          0.39961300       0.62221200       0.91729000
     7  C          0.55341500       0.46711200       0.88279000
     8  C          0.63691400       0.36331200       0.96609000
     9  O          0.65441100       0.28949000       0.15657000
    10  O          0.40901100       0.54589000       0.21787000
    11  O          0.33571100       0.71589000       0.83653000
    12  O          0.59621100       0.45619000       0.77723000
    13  H          0.52806000       0.52005000       0.75396000
    14  Br         0.17511000       0.32961000       0.04951000
    15  Br         0.83061000       0.67309000       0.94721000
    16  C          0.56001400       0.95968800       0.88791000
    17  C          0.40981400       0.11151200       0.91441000
    18  C          0.36021400       0.14321200       0.01781000
    19  C          0.43351400       0.03701200       0.11341000
    20  C          0.58491400       0.88768800       0.08691000
    21  C          0.64301400       0.85618800       0.97681000
    22  O          0.61211100       0.94039000       0.78717000
    23  O          0.34491100       0.20559000       0.82967000
    24  O          0.39481100       0.05711000       0.21087000
    25  O          0.65951100       0.79871000       0.16917000
    26  H          0.38506000       0.16405000       0.78104000
    27  C          0.56461300       0.28781200       0.48339000
    28  C          0.65651300       0.27111200       0.55551000
    29  C          0.78701200       0.34611200       0.50781000
    30  C          0.83251400       0.42621200       0.38831000
    31  C          0.73991400       0.44691200       0.32031000
    32  C          0.42901300       0.21421200       0.52359000
    33  C          0.37351300       0.20031200       0.44181000
    34  C          0.25591200       0.12031100       0.48489000
    35  C          0.17331300       0.05361200       0.61801000
    36  C          0.23951300       0.07701200       0.68761000
    37  C          0.98801300       0.50001200       0.32751000
    38  C          0.04111300       0.96968900       0.67181000
    39  N          0.60781000       0.38179000       0.36938000
    40  N          0.36791000       0.15189000       0.63968000
    41  H          0.63000000       0.20880000       0.63680000
    42  H          0.84340000       0.34140000       0.55770000
    43  H          0.76790000       0.50710000       0.23840000
    44  H          0.41850000       0.24670000       0.35770000
    45  H          0.22410000       0.10560000       0.42950000
    46  H          0.19370000       0.03940000       0.77280000
    47  H          0.09470000       0.43150000       0.28170000
    48  H          0.01420000       0.51080000       0.38980000
    49  H          0.95280000       0.60410000       0.27290000
    50  H          0.09180000       0.86060000       0.71410000
    51  H          0.00830000       0.97010000       0.60810000
    52  H          0.93440000       0.02210000       0.72910000
    53  H          0.52307000       0.41006000       0.33604000
    54  C          0.43531300       0.70221200       0.52319000
    55  C          0.34301300       0.72721200       0.45051000
    56  C          0.20691200       0.66251200       0.49789000
    57  C          0.16051400       0.57091200       0.61831000
    58  C          0.26781400       0.55611200       0.68171000
    59  C          0.57431300       0.78261200       0.47999000
    60  C          0.63021300       0.80271200       0.55471000
    61  C          0.76341200       0.87971100       0.50499000
    62  C          0.81951300       0.93801200       0.39091000
    63  C          0.75701300       0.92231200       0.31651000
    64  C          0.01701300       0.50131200       0.67391000
    65  C          0.95971300       0.02541100       0.33121000
    66  N          0.39971000       0.61619000       0.63908000
    67  N          0.64691000       0.84329000       0.35678000
    68  H          0.37340000       0.78830000       0.36890000
    69  H          0.14270000       0.67990000       0.44830000
    70  H          0.24120000       0.49620000       0.76380000
    71  H          0.58050000       0.76550000       0.63970000
    72  H          0.80950000       0.88750000       0.55580000
    73  H          0.79640000       0.97160000       0.23250000
    74  H          0.90380000       0.58470000       0.67150000
    75  H          0.00940000       0.44320000       0.75790000
    76  H          0.04080000       0.42890000       0.62990000
    77  H          0.94340000       0.08190000       0.38510000
    78  H          0.94540000       0.10090000       0.25490000
    79  H          0.07970000       0.94930000       0.31560000
    80  H          0.61606000       0.83605000       0.30004000
