data_POQPIX03
_symmetry_space_group_name_H-M    'P1'
_symmetry_Int_Tables_number       1
loop_
_symmetry_equiv_pos_site_id
_symmetry_equiv_pos_as_xyz
1 x,y,z
_cell_length_a                   4.87792
_cell_length_b                   8.10423
_cell_length_c                   11.86367
_cell_angle_alpha                108.473113
_cell_angle_beta                 91.289717
_cell_angle_gamma                98.224115
loop_
_atom_site_label
_atom_site_type_symbol
_atom_site_fract_x
_atom_site_fract_y
_atom_site_fract_z
     1  Br         0.12332140       0.82400500       0.05630400
     2  Br         0.87667860       0.17599500       0.94369600
     3  O          0.28728000       0.60743000       0.21372000
     4  O          0.71272000       0.39257000       0.78628000
     5  H          0.33461000       0.54657300       0.25197500
     6  H          0.66539000       0.45342700       0.74802500
     7  O          0.41118000       0.65374000       0.83308000
     8  O          0.58882000       0.34626000       0.16692000
     9  C          0.38061000       0.56134000       0.11252000
    10  C          0.61939000       0.43866000       0.88748000
    11  C          0.33501000       0.64034000       0.02483000
    12  C          0.66499000       0.35966000       0.97517000
    13  C          0.44871000       0.58554000       0.91528000
    14  C          0.55129000       0.41446000       0.08472000
    15  N          0.29928000       0.37554000       0.36232000
    16  N          0.70072000       0.62446000       0.63768000
    17  C          0.37601000       0.43133000       0.47852000
    18  C          0.62399000       0.56867000       0.52148000
    19  C          0.07891100       0.25124000       0.31763000
    20  C          0.92108900       0.74876000       0.68237000
    21  H          0.03059500       0.21643000       0.23621300
    22  H         -0.03059500       0.78357000       0.76378700
    23  C          0.91849000       0.17124000       0.38653000
    24  C          0.08151000       0.82876000       0.61347000
    25  C         -0.00541100       0.23105000       0.50663000
    26  C          0.00541100       0.76895000       0.49337000
    27  H          0.88944500       0.18467600       0.55712700
    28  H          0.11055500       0.81532400       0.44287300
    29  C          0.22491100       0.35904000       0.55393000
    30  C          0.77508900       0.64096000       0.44607000
    31  H          0.27738600       0.39590600       0.63501900
    32  H          0.72261400       0.60409400       0.36498100
    33  C          0.67518700       0.02915000       0.32894000
    34  C          0.32481300       0.97085000       0.67106000
    35  H          0.54567300       0.02117500       0.38739700
    36  H          0.45432700      -0.02117500       0.61260300
    37  H          0.73975900       0.91824500       0.29646200
    38  H          0.26024100       0.08175500       0.70353800
    39  H          0.58528500       0.05741700       0.26612500
    40  H          0.41471500       0.94258300       0.73387500
