data_POWBAH
_symmetry_space_group_name_H-M    'P1'
_symmetry_Int_Tables_number       1
loop_
_symmetry_equiv_pos_site_id
_symmetry_equiv_pos_as_xyz
1 x,y,z
_cell_length_a                   7.31987
_cell_length_b                   10.841511
_cell_length_c                   11.241811
_cell_angle_alpha                102.14201
_cell_angle_beta                 103.76201
_cell_angle_gamma                104.27001
loop_
_atom_site_label
_atom_site_type_symbol
_atom_site_fract_x
_atom_site_fract_y
_atom_site_fract_z
     1  Br         0.04142200       0.86324200       0.24395200
     2  Br         0.95857800       0.13675800       0.75604800
     3  F          0.63366840       0.81621100       0.05521100
     4  F          0.36633160       0.18378900       0.94478900
     5  F          0.37340850       0.95013100       0.07272100
     6  F          0.62659150       0.04986900       0.92727900
     7  F          0.80862830       0.23977100       0.46885100
     8  F          0.19137170       0.76022900       0.53114900
     9  F          0.07213150       0.10686100       0.45233900
    10  F          0.92786850       0.89313900       0.54766100
    11  C          0.85888000       0.95778160       0.25371150
    12  C          0.14112000       0.04221840       0.74628850
    13  C          0.67977000       0.92096160       0.15829150
    14  C          0.32023000       0.07903840       0.84170850
    15  C          0.54568000      -0.01039830       0.16778160
    16  C          0.45432000       0.01039830       0.83221840
    17  C          0.58307000       0.09734170       0.27148170
    18  C          0.41693000       0.90265830       0.72851830
    19  H          0.48780000       0.14061800       0.27820000
    20  H          0.51220000       0.85938200       0.72180000
    21  C          0.76237000       0.13364160       0.36606160
    22  C          0.23763000       0.86635840       0.63393840
    23  C          0.89848000       0.06634160       0.35857150
    24  C          0.10152000       0.93365840       0.64142850
    25  N          0.31072000       0.71246150       0.23224150
    26  N          0.68928000       0.28753850       0.76775850
    27  C          0.37303000       0.51926170       0.11991160
    28  C          0.62697000       0.48073830       0.88008840
    29  H          0.32852400       0.44327400       0.04784300
    30  H          0.67147600       0.55672600       0.95215700
    31  N          0.24722000       0.24770150       0.24905150
    32  N          0.75278000       0.75229850       0.75094850
    33  C          0.26003000       0.60468180       0.13303170
    34  C          0.73997000       0.39531820       0.86696830
    35  H          0.13929800       0.58509800       0.06732200
    36  H          0.86070200       0.41490200       0.93267800
    37  C          0.48243000       0.73743170       0.32281170
    38  C          0.51757000       0.26256830       0.67718830
    39  H          0.52138300       0.81311300       0.39460500
    40  H          0.47861700       0.18688700       0.60539500
    41  C          0.60643000       0.65979170       0.31824160
    42  C          0.39357000       0.34020830       0.68175840
    43  H          0.72695600       0.68283200       0.38507200
    44  H          0.27304400       0.31716800       0.61492800
    45  C          0.55252000       0.54690160       0.21412150
    46  C          0.44748000       0.45309840       0.78587850
    47  C          0.67582000       0.45893160       0.20189150
    48  C          0.32418000       0.54106840       0.79810850
    49  H          0.61941400       0.37688000       0.13641700
    50  H          0.38058600       0.62312000       0.86358300
    51  C          0.86183000       0.48623170       0.27642160
    52  C          0.13817000       0.51376830       0.72357840
    53  H          0.91633300       0.56771900       0.34268200
    54  H          0.08366700       0.43228100       0.65731800
    55  C         -0.01137000       0.40145160       0.26472160
    56  C          0.01137000       0.59854840       0.73527840
    57  C          0.16643000       0.43092170       0.36233160
    58  C          0.83357000       0.56907830       0.63766840
    59  H          0.20311100       0.50413900       0.43613700
    60  H          0.79688900       0.49586100       0.56386300
    61  C          0.28803000       0.35229180       0.35014170
    62  C          0.71197000       0.64770820       0.64985830
    63  H          0.40744000       0.37383300       0.41751700
    64  H          0.59256000       0.62616700       0.58248300
    65  C          0.07753000       0.21972170       0.15564170
    66  C          0.92247000       0.78027830       0.84435830
    67  H          0.04608100       0.14633100       0.08279300
    68  H          0.95391900       0.85366900       0.91720700
    69  C          0.94493000       0.29171170       0.15904160
    70  C          0.05507000       0.70828830       0.84095840
    71  H          0.82592200       0.26683500       0.09050200
    72  H          0.17407800       0.73316500       0.90949800
