data_POWGUG
_symmetry_space_group_name_H-M    'P1'
_symmetry_Int_Tables_number       1
loop_
_symmetry_equiv_pos_site_id
_symmetry_equiv_pos_as_xyz
1 x,y,z
_cell_length_a                   4.99264
_cell_length_b                   10.16579
_cell_length_c                   15.191313
_cell_angle_alpha                98.6513
_cell_angle_beta                 96.8263
_cell_angle_gamma                95.0583
loop_
_atom_site_label
_atom_site_type_symbol
_atom_site_fract_x
_atom_site_fract_y
_atom_site_fract_z
     1  O          0.20147000       0.48034000       0.42322000
     2  O          0.79853000       0.51966000       0.57678000
     3  N          0.62569000       0.43434000       0.39943000
     4  N          0.37431000       0.56566000       0.60057000
     5  H          0.79312000       0.44450000       0.41840000
     6  H          0.20688000       0.55550000       0.58160000
     7  N          0.39828000       0.47504000       0.17073000
     8  N          0.60172000       0.52496000       0.82927000
     9  C          0.44321000       0.47765000       0.45073000
    10  C          0.55679000       0.52235000       0.54927000
    11  C          0.55221000       0.38475000       0.30423000
    12  C          0.44779000       0.61525000       0.69577000
    13  H          0.36140000       0.34390000       0.29390000
    14  H          0.63860000       0.65610000       0.70610000
    15  H          0.66690000       0.31320000       0.28640000
    16  H          0.33310000       0.68680000       0.71360000
    17  C          0.58191000       0.48925000       0.24453000
    18  C          0.41809000       0.51075000       0.75547000
    19  C          0.79641100       0.59055000       0.26193000
    20  C          0.20358900       0.40945000       0.73807000
    21  H          0.92110000       0.60020000       0.31540000
    22  H          0.07890000       0.39980000       0.68460000
    23  C          0.82721100       0.67745000       0.20063000
    24  C          0.17278900       0.32255000       0.79937000
    25  H         -0.02410000       0.74530000       0.21050000
    26  H          0.02410000       0.25470000       0.78950000
    27  C          0.63531100       0.66295000       0.12423000
    28  C          0.36468900       0.33705000       0.87577000
    29  H          0.64820000       0.72150000       0.08140000
    30  H          0.35180000       0.27850000       0.91860000
    31  C          0.42581100       0.56095000       0.11263000
    32  C          0.57418900       0.43905000       0.88737000
    33  H          0.29440000       0.55110000       0.06080000
    34  H          0.70560000       0.44890000       0.93920000
    35  H          0.20712000       0.55650000       0.58240000
    36  H          0.79288000       0.44350000       0.41760000
    37  I         -0.00616400       0.26513300       0.10198200
    38  I          0.00616400       0.73486700       0.89801800
    39  F          0.54846000       0.08183000       0.18002170
    40  F          0.45154000       0.91817000       0.81997830
    41  F          0.16786000       0.88577000       0.10259190
    42  F          0.83214000       0.11423000       0.89740810
    43  C          0.70141000       0.10645000       0.04123000
    44  C          0.29859000       0.89355000       0.95877000
    45  C          0.52811000       0.04235000       0.08993000
    46  C          0.47189000       0.95765000       0.91007000
    47  C          0.33101000       0.94035000       0.05033000
    48  C          0.66899000       0.05965000       0.94967000
    49  I          0.00963700       0.06344300       0.33352200
    50  I         -0.00963700       0.93655700       0.66647800
    51  F          0.26737000       0.23153000       0.52402000
    52  F          0.73263000       0.76847000       0.47598000
    53  F          0.65197000       0.18593000       0.64992000
    54  F          0.34803000       0.81407000       0.35008000
    55  C          0.29741000       0.02425000       0.43373000
    56  C          0.70259000       0.97575000       0.56627000
    57  C          0.38091100       0.11675000       0.51053000
    58  C          0.61908900       0.88325000       0.48947000
    59  C          0.58131100       0.09335000       0.57563000
    60  C          0.41868900       0.90665000       0.42437000
