data_POWJAP
_symmetry_space_group_name_H-M    'P1'
_symmetry_Int_Tables_number       1
loop_
_symmetry_equiv_pos_site_id
_symmetry_equiv_pos_as_xyz
1 x,y,z
_cell_length_a                   5.03794
_cell_length_b                   11.71008
_cell_length_c                   19.001413
_cell_angle_alpha                86.0952
_cell_angle_beta                 84.0192
_cell_angle_gamma                79.9372
loop_
_atom_site_label
_atom_site_type_symbol
_atom_site_fract_x
_atom_site_fract_y
_atom_site_fract_z
     1  O          0.04614000      -0.00337830       0.22471100
     2  O          0.95386000       0.00337830       0.77528900
     3  O          0.64354000       0.93480170       0.11208100
     4  O          0.35646000       0.06519830       0.88791900
     5  N          0.47895000       0.01032000       0.24132120
     6  N          0.52105000      -0.01032000       0.75867880
     7  H          0.63260000      -0.00070000       0.22471500
     8  H          0.36740000       0.00070000       0.77528500
     9  N          0.22645000       0.89882000       0.09708120
    10  N          0.77355000       0.10118000       0.90291880
    11  H          0.06960000       0.90930000       0.11131600
    12  H          0.93040000       0.09070000       0.88868400
    13  N          0.68835000       0.80442000       0.47404130
    14  N          0.31165000       0.19558000       0.52595870
    15  N          0.82025000       0.66062000       0.93319870
    16  N          0.17975000       0.33938000       0.06680130
    17  C          0.28925000       0.98322000       0.20556140
    18  C          0.71075000       0.01678000       0.79443860
    19  C          0.40395000       0.93522000       0.13346140
    20  C          0.59605000       0.06478000       0.86653860
    21  C          0.42456000       0.05893000       0.31042140
    22  C          0.57544000       0.94107000       0.68957860
    23  H          0.22782800       0.08729400       0.31969500
    24  H          0.77217200       0.91270600       0.68030500
    25  H          0.51967500       0.12590600       0.31095200
    26  H          0.48032500       0.87409400       0.68904800
    27  C          0.51555000       0.97063000       0.36787150
    28  C          0.48445000       0.02937000       0.63212850
    29  C          0.41766000       0.86653000       0.37829160
    30  C          0.58234000       0.13347000       0.62170840
    31  H          0.28950700       0.84964900       0.34887500
    32  H          0.71049300       0.15035100       0.65112500
    33  C          0.50717000       0.78733000       0.43159160
    34  C          0.49283000       0.21267000       0.56840840
    35  H          0.43545400       0.71712600       0.43819200
    36  H          0.56454600       0.28287400       0.56180800
    37  C          0.78256000       0.90413000       0.46357160
    38  C          0.21744000       0.09587000       0.53642840
    39  H          0.91225900       0.91801200       0.49342700
    40  H          0.08774100       0.08198800       0.50657300
    41  C          0.70416000       0.98843000       0.41219160
    42  C          0.29584000       0.01157000       0.58780840
    43  H          0.77846600       0.05803400       0.40723800
    44  H          0.22153400       0.94196600       0.59276200
    45  C          0.30216000       0.87153000       0.02336150
    46  C          0.69784000       0.12847000       0.97663850
    47  H          0.49215100       0.83089600       0.01869800
    48  H          0.50784900       0.16910400       0.98130200
    49  H          0.29371200       0.94516000      -0.00586100
    50  H          0.70628800       0.05484000       0.00586100
    51  C          0.12795000       0.79762000      -0.00570140
    52  C          0.87205000       0.20238000       0.00570140
    53  C          0.07225000       0.81683000       0.92411850
    54  C          0.92775000       0.18317000       0.07588150
    55  H          0.13845000       0.87739400       0.89551800
    56  H          0.86155000       0.12260600       0.10448200
    57  C          0.91994000       0.74733000       0.89637850
    58  C          0.08006000       0.25267000       0.10362150
    59  H          0.88376100       0.76178100       0.84821700
    60  H          0.11623900       0.23821900       0.15178300
    61  C          0.87404000       0.64263000       0.00087150
    62  C          0.12596000       0.35737000      -0.00087150
    63  H          0.80365900       0.58181500       0.02823800
    64  H          0.19634100       0.41818500       0.97176200
    65  C          0.02626000       0.70743000       0.03325150
    66  C          0.97374000       0.29257000       0.96674850
    67  H          0.06069300       0.69057800       0.08139500
    68  H          0.93930700       0.30942200       0.91860500
    69  I          0.89668400       0.64911200       0.58178200
    70  I          0.10331600       0.35088800       0.41821800
    71  I          0.55048400       0.55450200       0.83856200
    72  I          0.44951600       0.44549800       0.16143800
    73  F          0.25553000       0.68154140       0.70658900
    74  F          0.74447000       0.31845860       0.29341100
    75  F          0.38954000       0.30728150       0.81794900
    76  F          0.61046000       0.69271850       0.18205100
    77  F          0.07084000       0.23746150       0.73025100
    78  F          0.92916000       0.76253850       0.26974900
    79  F          0.86054000       0.38325160       0.62767900
    80  F          0.13946000       0.61674840       0.37232100
    81  C          0.06246000       0.53603000       0.66265150
    82  C          0.93754000       0.46397000       0.33734850
    83  C          0.21696000       0.56982000       0.71079150
    84  C          0.78304000       0.43018000       0.28920850
    85  C          0.33275000       0.49633000       0.76352140
    86  C          0.66725000       0.50367000       0.23647860
    87  C          0.28356000       0.38403000       0.76774150
    88  C          0.71644000       0.61597000       0.23225850
    89  C          0.12436000       0.34643000       0.72279160
    90  C          0.87564000       0.65357000       0.27720840
    91  C          0.01646000       0.42303000       0.67081150
    92  C         -0.01646000       0.57697000       0.32918850
