data_POWLIA
_symmetry_space_group_name_H-M    'P1'
_symmetry_Int_Tables_number       1
loop_
_symmetry_equiv_pos_site_id
_symmetry_equiv_pos_as_xyz
1 x,y,z
_cell_length_a                   7.76013
_cell_length_b                   8.02932
_cell_length_c                   18.01376
_cell_angle_alpha                97.118411
_cell_angle_beta                 90.659412
_cell_angle_gamma                117.70041
loop_
_atom_site_label
_atom_site_type_symbol
_atom_site_fract_x
_atom_site_fract_y
_atom_site_fract_z
     1  S          0.25384400       0.13872500       0.52345200
     2  S          0.74615600       0.86127500       0.47654800
     3  N          0.61894140       0.23726140       0.54968500
     4  N          0.38105860       0.76273860       0.45031500
     5  N          0.54531140       0.32943140       0.43849500
     6  N          0.45468860       0.67056860       0.56150500
     7  N          0.40541150       0.34000150       0.39628600
     8  N          0.59458850       0.65999850       0.60371400
     9  O          0.34430150       0.52926140       0.15865500
    10  O          0.65569850       0.47073860       0.84134500
    11  O          0.63266150       0.57413170       0.20005600
    12  O          0.36733850       0.42586830       0.79994400
    13  O          0.07906140       0.29853160       0.34016600
    14  O          0.92093860       0.70146840       0.65983400
    15  H          0.15430000       0.29430000       0.36801100
    16  H          0.84570000       0.70570000       0.63198900
    17  C          0.49484170       0.24455160       0.50343600
    18  C          0.50515830       0.75544840       0.49656400
    19  C          0.32405180       0.07723190       0.60185700
    20  C          0.67594820       0.92276810       0.39814300
    21  H          0.23749200       0.00843800       0.63675700
    22  H          0.76250800      -0.00843800       0.36324300
    23  C          0.52073170       0.14021160       0.60744600
    24  C          0.47926830       0.85978840       0.39255400
    25  C          0.63062180       0.11259160       0.66772600
    26  C          0.36937820       0.88740840       0.33227400
    27  C          0.82510180       0.15435180       0.66165700
    28  C          0.17489820       0.84564820       0.33834300
    29  H          0.88861300       0.20340500       0.61863100
    30  H          0.11138700       0.79659500       0.38136900
    31  C          0.92662000       0.12455190       0.71828800
    32  C          0.07338000       0.87544810       0.28171200
    33  H          0.05898300       0.15312800       0.71367600
    34  H          0.94101700       0.84687200       0.28632400
    35  C          0.83582000       0.05352000       0.78128800
    36  C          0.16418000       0.94648000       0.21871200
    37  H          0.90526400       0.03225800       0.81961000
    38  H          0.09473600       0.96774200       0.18039000
    39  C          0.64352000       0.01352000       0.78829800
    40  C          0.35648000      -0.01352000       0.21170200
    41  H          0.58107400       0.96534000       0.83161400
    42  H          0.41892600       0.03466000       0.16838600
    43  C          0.54142000       0.04360190       0.73211700
    44  C          0.45858000       0.95639810       0.26788300
    45  H          0.40982700       0.01705300       0.73751800
    46  H          0.59017300      -0.01705300       0.26248200
    47  C          0.71739180       0.39547180       0.40561700
    48  C          0.28260820       0.60452820       0.59438300
    49  H          0.83505300       0.40141600       0.42471300
    50  H          0.16494700       0.59858400       0.57528700
    51  C          0.68917180       0.45152180       0.34009700
    52  C          0.31082820       0.54847820       0.65990300
    53  H          0.78235800       0.50470700       0.30471000
    54  H          0.21764200       0.49529300       0.69529000
    55  C          0.49107170       0.41359160       0.33591600
    56  C          0.50892830       0.58640840       0.66408400
    57  C          0.37310180       0.43586170       0.27794700
    58  C          0.62689820       0.56413830       0.72205300
    59  C          0.46013190       0.51520180       0.21313700
    60  C          0.53986810       0.48479820       0.78686300
    61  C          0.14912000       0.46498190       0.16323800
    62  C          0.85088000       0.53501810       0.83676200
    63  C          0.06162000       0.38762000       0.22257800
    64  C          0.93838000       0.61238000       0.77742200
    65  H          0.92512900       0.34176500       0.22509000
    66  H          0.07487100       0.65823500       0.77491000
    67  C          0.17497190       0.37429180       0.28220700
    68  C          0.82502810       0.62570820       0.71779300
    69  C          0.05633000       0.49192000       0.09601900
    70  C          0.94367000       0.50808000       0.90398100
    71  H          0.91475100       0.43417500       0.09937200
    72  H          0.08524900       0.56582500       0.90062800
    73  H          0.08457400       0.43104600       0.05060300
    74  H          0.91542600       0.56895400       0.94939700
    75  H          0.10861100       0.62806300       0.09385300
    76  H          0.89138900       0.37193700       0.90614700
    77  C          0.70572000       0.88792000       0.98783200
    78  C          0.29428000       0.11208000       0.01216800
    79  F          0.83485170       0.85938160       0.94761500
    80  F          0.16514830       0.14061840       0.05238500
    81  F          0.73870190       0.06320150       0.98419400
    82  F          0.26129810       0.93679850       0.01580600
    83  F          0.53029170       0.77043170       0.95390400
    84  F          0.46970830       0.22956830       0.04609600
    85  C          0.71692000       0.85392000       0.06960700
    86  C          0.28308000       0.14608000       0.93039300
    87  O          0.71805180       0.69279160       0.07129600
    88  O          0.28194820       0.30720840       0.92870400
    89  H          0.68830000       0.65330000       0.11761100
    90  H          0.31170000       0.34670000       0.88238900
    91  O          0.72132000       0.96590190       0.12062600
    92  O          0.27868000       0.03409810       0.87937400
