data_PUCSEO
_symmetry_space_group_name_H-M    'P1'
_symmetry_Int_Tables_number       1
loop_
_symmetry_equiv_pos_site_id
_symmetry_equiv_pos_as_xyz
1 x,y,z
_cell_length_a                   6.964501
_cell_length_b                   19.38943
_cell_length_c                   15.72382
_cell_angle_alpha                90.0
_cell_angle_beta                 90.70001
_cell_angle_gamma                90.0
loop_
_atom_site_label
_atom_site_type_symbol
_atom_site_fract_x
_atom_site_fract_y
_atom_site_fract_z
     1  C         -0.01265000       0.49488180       0.31232000
     2  C          0.01265000      -0.00511820       0.68768000
     3  C          0.82945000       0.51726190       0.26212000
     4  C          0.17055000       0.01726190       0.73788000
     5  H          0.70342200       0.51493700       0.28441900
     6  H          0.29657800       0.01493700       0.71558100
     7  C          0.85615000       0.54244170       0.18092000
     8  C          0.14385000       0.04244170       0.81908000
     9  H          0.74909200       0.55716400       0.14755500
    10  H          0.25090800       0.05716400       0.85244500
    11  C          0.04135000       0.54613160       0.14827190
    12  C          0.95865000       0.04613160       0.85172810
    13  C          0.19765000       0.52530170       0.19722000
    14  C          0.80235000       0.02530170       0.80278000
    15  H          0.32352300       0.52897200       0.17509800
    16  H          0.67647700       0.02897200       0.82490200
    17  C          0.17115000       0.49929180       0.27772000
    18  C          0.82885000      -0.00070820       0.72228000
    19  H          0.27898400       0.48415000       0.31021500
    20  H          0.72101600       0.98415000       0.68978500
    21  C          0.12965000       0.70817160       0.07967180
    22  C          0.87035000       0.20817160       0.92032820
    23  C          0.39075000       0.74537190       0.15292000
    24  C          0.60925000       0.24537190       0.84708000
    25  C          0.32655000       0.81296190       0.14422000
    26  C          0.67345000       0.31296190       0.85578000
    27  H          0.39904500       0.85028300       0.16694500
    28  H          0.60095500       0.35028300       0.83305500
    29  C          0.15475000       0.82453170       0.10152000
    30  C          0.84525000       0.32453170       0.89848000
    31  C          0.57415000       0.72802000       0.19872000
    32  C          0.42585000       0.22802000       0.80128000
    33  H          0.55145300       0.69014200       0.23859500
    34  H          0.44854700       0.19014200       0.76140500
    35  H          0.61998300       0.76859400       0.23010000
    36  H          0.38001700       0.26859400       0.76990000
    37  H          0.67088700       0.71402000       0.15742600
    38  H          0.32911300       0.21402000       0.84257400
    39  C          0.07026000       0.89511190       0.09083000
    40  C          0.92974000       0.39511190       0.90917000
    41  H          0.15774400       0.92386200       0.05774000
    42  H          0.84225600       0.42386200       0.94226000
    43  H          0.05112600       0.91600100       0.14680200
    44  H          0.94887400       0.41600100       0.85319800
    45  H          0.94641500       0.89161700       0.06077200
    46  H          0.05358500       0.39161700       0.93922800
    47  N          0.96196000       0.46972000       0.39142000
    48  N          0.03804000       0.96972000       0.60858000
    49  N          0.02574000       0.65609140       0.04143180
    50  N          0.97426000       0.15609140       0.95856820
    51  N          0.29054000       0.69205140       0.12110160
    52  N          0.70946000       0.19205140       0.87889840
    53  N          0.05514000       0.77150130       0.06854160
    54  N          0.94486000       0.27150130       0.93145840
    55  O          0.26433000       0.56045130       0.01987140
    56  O          0.73567000       0.06045130       0.98012860
    57  O          0.91693000       0.54552120      -0.00731150
    58  O          0.08307000       0.04552120       0.00731150
    59  S          0.07028120       0.57286400       0.04382500
    60  S          0.92971880       0.07286400       0.95617500
    61  H          0.06960000       0.45320000       0.41730000
    62  H          0.93040000       0.95320000       0.58270000
    63  H          0.85970000       0.46220000       0.41130000
    64  H          0.14030000       0.96220000       0.58870000
    65  H          0.93050000       0.66420000       0.02420000
    66  H          0.06950000       0.16420000       0.97580000
    67  C          0.44334000       0.77424170       0.91763810
    68  C          0.55666000       0.27424170       0.08236190
    69  C          0.33354000       0.71875170       0.88874810
    70  C          0.66646000       0.21875170       0.11125190
    71  H          0.37951100       0.67297500       0.89594700
    72  H          0.62048900       0.17297500       0.10405300
    73  C          0.15885000       0.73019180       0.84985810
    74  C          0.84115000       0.23019180       0.15014190
    75  C          0.08635000       0.79516190       0.83638000
    76  C          0.91365000       0.29516190       0.16362000
    77  H          0.96568600       0.80159500       0.80868500
    78  H          0.03431400       0.30159500       0.19131500
    79  C          0.19315000       0.85085190       0.86418000
    80  C          0.80685000       0.35085190       0.13582000
    81  H          0.14518400       0.89624800       0.85575700
    82  H          0.85481600       0.39624800       0.14424300
    83  C          0.37095000       0.84122170       0.90448000
    84  C          0.62905000       0.34122170       0.09552000
    85  C          0.63035000       0.75577180       0.95938000
    86  C          0.36965000       0.25577180       0.04062000
    87  N          0.04754000       0.67000160       0.81968830
    88  N          0.95246000       0.17000160       0.18031170
    89  O          0.67795000       0.69642150       0.96637000
    90  O          0.32205000       0.19642150       0.03363000
    91  O          0.73044000       0.80575140       0.99018000
    92  O          0.26956000       0.30575140       0.00982000
    93  O          0.11264000       0.61263140       0.83011840
    94  O          0.88736000       0.11263140       0.16988160
    95  O          0.89476000       0.68114160       0.78487000
    96  O          0.10524000       0.18114160       0.21513000
    97  Cl         0.48958140       0.91490500       0.93593300
    98  Cl         0.51041860       0.41490500       0.06406700
    99  H          0.82670000       0.78430000       0.01730000
   100  H          0.17330000       0.28430000       0.98270000
   101  C          0.54165000       0.51117160       0.80826190
   102  C          0.45835000       0.01117160       0.19173810
   103  C          0.69775000       0.50798160       0.75362000
   104  C          0.30225000       0.00798160       0.24638000
   105  H          0.81704400       0.52757100       0.77084800
   106  H          0.18295600       0.02757100       0.22915200
   107  C          0.68175000       0.47698170       0.67532000
   108  C          0.31825000       0.97698170       0.32468000
   109  H          0.78976300       0.47487700       0.63908900
   110  H          0.21023700       0.97487700       0.36091100
   111  C          0.50745000       0.44869160       0.64896190
   112  C          0.49255000       0.94869160       0.35103810
   113  C          0.34995000       0.45099160       0.70252000
   114  C          0.65005000       0.95099160       0.29748000
   115  H          0.23085800       0.43156800       0.68467400
   116  H          0.76914200       0.93156800       0.31532600
   117  C          0.36675000       0.48134170       0.78112000
   118  C          0.63325000       0.98134170       0.21888000
   119  H          0.25913600       0.48226700       0.81762300
   120  H          0.74086400       0.98226700       0.18237700
   121  C          0.53774000       0.28166160       0.57640180
   122  C          0.46226000       0.78166160       0.42359820
   123  C          0.80815000       0.24092000       0.63902000
   124  C          0.19185000       0.74092000       0.36098000
   125  C          0.74915000       0.17402000       0.62122000
   126  C          0.25085000       0.67402000       0.37878000
   127  H          0.82682600       0.13562300       0.63683600
   128  H          0.17317400       0.63562300       0.36316400
   129  C          0.57485000       0.16454180       0.58032000
   130  C          0.42515000       0.66454180       0.41968000
   131  C         -0.00355000       0.25482000       0.68382000
   132  C          0.00355000       0.75482000       0.31618000
   133  H          0.09540700       0.26443700       0.64163200
   134  H          0.90459300       0.76443700       0.35836800
   135  H          0.03384800       0.21440400       0.71751400
   136  H          0.96615200       0.71440400       0.28248600
   137  H         -0.01735600       0.29479400       0.72141600
   138  H          0.01735600       0.79479400       0.27858400
   139  C          0.49246000       0.09551180       0.55973000
   140  C          0.50754000       0.59551180       0.44027000
   141  H          0.37510200       0.08840200       0.59234400
   142  H          0.62489800       0.58840200       0.40765600
   143  H          0.58610200       0.05960100       0.57439600
   144  H          0.41389800       0.55960100       0.42560400
   145  H          0.46186800       0.09313800       0.49875000
   146  H          0.53813200       0.59313800       0.50125000
   147  N          0.55555000       0.54321180       0.88452000
   148  N          0.44445000       0.04321180       0.11548000
   149  N          0.42094000       0.33576140       0.55222180
   150  N          0.57906000       0.83576140       0.44777820
   151  N          0.70264000       0.29565150       0.61677170
   152  N          0.29736000       0.79565150       0.38322830
   153  N          0.46794000       0.21910140       0.55726150
   154  N          0.53206000       0.71910140       0.44273850
   155  O          0.66224000       0.42440130       0.50484140
   156  O          0.33776000       0.92440130       0.49515860
   157  O          0.31464000       0.44707120       0.50673150
   158  O          0.68536000       0.94707120       0.49326850
   159  S          0.48195120       0.41763400       0.54589500
   160  S          0.51804880       0.91763400       0.45410500
   161  H          0.65870000       0.56420000       0.89830000
   162  H          0.34130000       0.06420000       0.10170000
   163  H          0.45460000       0.54331900       0.91620000
   164  H          0.54540000       0.04331900       0.08380000
   165  H          0.32570000       0.32520000       0.52130000
   166  H          0.67430000       0.82520000       0.47870000
   167  C          0.86316000       0.22611180       0.40219190
   168  C          0.13684000       0.72611180       0.59780810
   169  C          0.79145000       0.16005180       0.38412000
   170  C          0.20855000       0.66005180       0.61588000
   171  C          0.61565000       0.15204190       0.34242000
   172  C          0.38435000       0.65204190       0.65758000
   173  H          0.56837400       0.10707100       0.33043000
   174  H          0.43162600       0.60707100       0.66957000
   175  C          0.50965000       0.20892000       0.31822000
   176  C          0.49035000       0.70892000       0.68178000
   177  H          0.38919200       0.20357900       0.29004100
   178  H          0.61080800       0.70357900       0.70995900
   179  C          0.58165000       0.27318180       0.33572000
   180  C          0.41835000       0.77318180       0.66428000
   181  C          0.75615000       0.28316180       0.37691190
   182  C          0.24385000       0.78316180       0.62308810
   183  H          0.80219600       0.32847100       0.38779200
   184  H          0.19780400       0.82847100       0.61220800
   185  C          0.04835000       0.24266170       0.44762000
   186  C          0.95165000       0.74266170       0.55238000
   187  N          0.47306000       0.33461170       0.30807190
   188  N          0.52694000       0.83461170       0.69192810
   189  O          0.15274000       0.19132140       0.46992000
   190  O          0.84726000       0.69132140       0.53008000
   191  O          0.08964000       0.30119140       0.46382000
   192  O          0.91036000       0.80119140       0.53618000
   193  O          0.54616000       0.39075140       0.31613180
   194  O          0.45384000       0.89075140       0.68386820
   195  O          0.31605000       0.32563180       0.27623000
   196  O          0.68395000       0.82563180       0.72377000
   197  Cl         0.90954860       0.08534400       0.41188700
   198  Cl         0.09045140       0.58534400       0.58811300
   199  H          0.25880000       0.20530000       0.49830000
   200  H          0.74120000       0.70530000       0.50170000
