data_PUCSOY
_symmetry_space_group_name_H-M    'P1'
_symmetry_Int_Tables_number       1
loop_
_symmetry_equiv_pos_site_id
_symmetry_equiv_pos_as_xyz
1 x,y,z
_cell_length_a                   8.59797
_cell_length_b                   11.82151
_cell_length_c                   19.558716
_cell_angle_alpha                90.0
_cell_angle_beta                 102.0093
_cell_angle_gamma                90.0
loop_
_atom_site_label
_atom_site_type_symbol
_atom_site_fract_x
_atom_site_fract_y
_atom_site_fract_z
     1  C          0.89444000       0.65902000       0.28271150
     2  C          0.60556000       0.15902000       0.21728850
     3  C          0.10556000       0.34098000       0.71728850
     4  C          0.39444000       0.84098000       0.78271150
     5  C          0.90464000       0.76243000       0.31843150
     6  C          0.59536000       0.26243000       0.18156850
     7  C          0.09536000       0.23757000       0.68156850
     8  C          0.40464000       0.73757000       0.81843150
     9  H          0.00281700       0.80207700       0.32820700
    10  H          0.49718300       0.30207700       0.17179300
    11  H         -0.00281700       0.19792300       0.67179300
    12  H          0.50281700       0.69792300       0.82820700
    13  C          0.77454000       0.80733000       0.33958150
    14  C          0.72546000       0.30733000       0.16041850
    15  C          0.22546000       0.19267000       0.66041850
    16  C          0.27454000       0.69267000       0.83958150
    17  H          0.78305700       0.87776200       0.36338600
    18  H          0.71694300       0.37776200       0.13661400
    19  H          0.21694300       0.12223800       0.63661400
    20  H          0.28305700       0.62223800       0.86338600
    21  C          0.63064000       0.74952000       0.32609150
    22  C          0.86936000       0.24952000       0.17390850
    23  C          0.36936000       0.25048000       0.67390850
    24  C          0.13064000       0.75048000       0.82609150
    25  C          0.61934000       0.64492000       0.29236160
    26  C          0.88066000       0.14492000       0.20763840
    27  C          0.38066000       0.35508000       0.70763840
    28  C          0.11934000       0.85508000       0.79236160
    29  H          0.52157800       0.60453800       0.28392400
    30  H          0.97842200       0.10453800       0.21607600
    31  H          0.47842200       0.39546200       0.71607600
    32  H          0.02157800       0.89546200       0.78392400
    33  C          0.74954000       0.60013000       0.27126150
    34  C          0.75046000       0.10013000       0.22873850
    35  C          0.25046000       0.39987000       0.72873850
    36  C          0.24954000       0.89987000       0.77126150
    37  H          0.74120200       0.52854800       0.24869300
    38  H          0.75879800       0.02854800       0.25130700
    39  H          0.25879800       0.47145200       0.75130700
    40  H          0.24120200       0.97145200       0.74869300
    41  C          0.53623000       0.77042000       0.48926150
    42  C          0.96377000       0.27042000       0.01073850
    43  C          0.46377000       0.22958000       0.51073850
    44  C          0.03623000       0.72958000       0.98926150
    45  C          0.71753000       0.87073000       0.56601160
    46  C          0.78247000       0.37073000       0.93398840
    47  C          0.28247000       0.12927000       0.43398840
    48  C          0.21753000       0.62927000       0.06601160
    49  C          0.69634000       0.79843000       0.61912150
    50  C          0.80366000       0.29843000       0.88087850
    51  C          0.30366000       0.20157000       0.38087850
    52  C          0.19634000       0.70157000       0.11912150
    53  H          0.75386300       0.80940400       0.66565000
    54  H          0.74613700       0.30940400       0.83435000
    55  H          0.24613700       0.19059600       0.33435000
    56  H          0.25386300       0.69059600       0.16565000
    57  C          0.59094000       0.71062000       0.60324150
    58  C          0.90906000       0.21062000       0.89675850
    59  C          0.40906000       0.28938000       0.39675850
    60  C          0.09094000       0.78938000       0.10324150
    61  C          0.82914000       0.96923000       0.57987160
    62  C          0.67086000       0.46923000       0.92012840
    63  C          0.17086000       0.03077000       0.42012840
    64  C          0.32914000       0.53077000       0.07987160
    65  H          0.89656000       0.97013500       0.54520100
    66  H          0.60344000       0.47013500       0.95479900
    67  H          0.10344000       0.02986500       0.45479900
    68  H          0.39656000       0.52986500       0.04520100
    69  H          0.89586800       0.96222500       0.62681900
    70  H          0.60413200       0.46222500       0.87318100
    71  H          0.10413200       0.03777500       0.37318100
    72  H          0.39586800       0.53777500       0.12681900
    73  H          0.76781700       0.03956900       0.57666100
    74  H          0.73218300       0.53956900       0.92333900
    75  H          0.23218300       0.96043100       0.42333900
    76  H          0.26781700       0.46043100       0.07666100
    77  C          0.55834000       0.62893000       0.65710150
    78  C          0.94166000       0.12893000       0.84289850
    79  C          0.44166000       0.37107000       0.34289850
    80  C          0.05834000       0.87107000       0.15710150
    81  H          0.45565800       0.64676800       0.66877400
    82  H          0.04434200       0.14676800       0.83122600
    83  H          0.54434200       0.35323200       0.33122600
    84  H          0.95565800       0.85323200       0.16877400
    85  H          0.64261400       0.63457500       0.69923800
    86  H          0.85738600       0.13457500       0.80076200
    87  H          0.35738600       0.36542500       0.30076200
    88  H          0.14261400       0.86542500       0.19923800
    89  H          0.55548900       0.55172500       0.63850600
    90  H          0.94451100       0.05172500       0.86149400
    91  H          0.44451100       0.44827500       0.36149400
    92  H          0.05548900       0.94827500       0.13850600
    93  N          0.02083000       0.61753000       0.25956140
    94  N          0.47917000       0.11753000       0.24043860
    95  N          0.97917000       0.38247000       0.74043860
    96  N          0.52083000       0.88247000       0.75956140
    97  N          0.44163000       0.75372000       0.42329130
    98  N          0.05837000       0.25372000       0.07670870
    99  N          0.55837000       0.24628000       0.57670870
   100  N          0.94163000       0.74628000       0.92329130
   101  N          0.63753000       0.85622000       0.49972130
   102  N          0.86247000       0.35622000       0.00027870
   103  N          0.36247000       0.14378000       0.50027870
   104  N          0.13753000       0.64378000      -0.00027870
   105  N          0.50913000       0.69522000       0.53705120
   106  N         -0.00913000       0.19522000       0.96294880
   107  N          0.49087000       0.30478000       0.46294880
   108  N          0.00913000       0.80478000       0.03705120
   109  O          0.32532000       0.76404190       0.30066110
   110  O          0.17468000       0.26404190       0.19933890
   111  O          0.67468000       0.23595810       0.69933890
   112  O          0.82532000       0.73595810       0.80066110
   113  O          0.48263000       0.92757170       0.35488110
   114  O          0.01737000       0.42757170       0.14511890
   115  O          0.51737000       0.07242830       0.64511890
   116  O         -0.01737000       0.57242830       0.85488110
   117  S          0.46176900       0.80768600       0.34844400
   118  S          0.03823100       0.30768600       0.15155600
   119  S          0.53823100       0.19231400       0.65155600
   120  S          0.96176900       0.69231400       0.84844400
   121  H          0.11150000       0.64930000       0.27320000
   122  H          0.38850000       0.14930000       0.22680000
   123  H          0.88850000       0.35070000       0.72680000
   124  H          0.61150000       0.85070000       0.77320000
   125  H          0.01040000       0.56330000       0.23301600
   126  H          0.48960000       0.06330000       0.26698400
   127  H         -0.01040000       0.43670000       0.76698400
   128  H          0.51040000       0.93670000       0.73301600
   129  H          0.38640000       0.69830000       0.41751700
   130  H          0.11360000       0.19830000       0.08248300
   131  H          0.61360000       0.30170000       0.58248300
   132  H          0.88640000       0.80170000       0.91751700
   133  C          0.10194000       0.41632000       0.44922150
   134  C          0.39806000       0.91632000       0.05077850
   135  C          0.89806000       0.58368000       0.55077850
   136  C          0.60194000       0.08368000       0.94922150
   137  C          0.01094000       0.39682000       0.38265150
   138  C          0.48906000       0.89682000       0.11734850
   139  C         -0.01094000       0.60318000       0.61734850
   140  C          0.51094000       0.10318000       0.88265150
   141  H          0.02367700       0.44411000       0.34496600
   142  H          0.47632300       0.94411000       0.15503400
   143  H          0.97632300       0.55589000       0.65503400
   144  H          0.52367700       0.05589000       0.84496600
   145  C          0.90206000       0.30923000       0.37084150
   146  C          0.59794000       0.80923000       0.12915850
   147  C          0.09794000       0.69077000       0.62915850
   148  C          0.40206000       0.19077000       0.87084150
   149  H          0.83982400       0.29592200       0.32542600
   150  H          0.66017600       0.79592200       0.17457400
   151  H          0.16017600       0.70407800       0.67457400
   152  H          0.33982400       0.20407800       0.82542600
   153  C          0.88576000       0.24112000       0.42664160
   154  C          0.61424000       0.74112000       0.07335840
   155  C          0.11424000       0.75888000       0.57335840
   156  C          0.38576000       0.25888000       0.92664160
   157  C          0.97436000       0.25943000       0.49339160
   158  C          0.52564000       0.75943000       0.00660840
   159  C          0.02564000       0.74057000       0.50660840
   160  C          0.47436000       0.24057000      -0.00660840
   161  H          0.96108400       0.21206300       0.53099600
   162  H          0.53891600       0.71206300       0.96900400
   163  H          0.03891600       0.78793700       0.46900400
   164  H          0.46108400       0.28793700       0.03099600
   165  C          0.08244000       0.34742000       0.50458160
   166  C          0.41756000       0.84742000      -0.00458160
   167  C          0.91756000       0.65258000       0.49541840
   168  C          0.58244000       0.15258000       0.00458160
   169  H          0.14358100       0.36099000       0.55017100
   170  H          0.35641900       0.86099000       0.94982900
   171  H          0.85641900       0.63901000       0.44982900
   172  H          0.64358100       0.13901000       0.05017100
   173  C          0.22004000       0.50983000       0.45875160
   174  C          0.27996000       0.00983000       0.04124840
   175  C          0.77996000       0.49017000       0.54124840
   176  C          0.72004000      -0.00983000       0.95875160
   177  O          0.30413000       0.52039190       0.52255110
   178  O          0.19587000       0.02039190       0.97744890
   179  O          0.69587000       0.47960810       0.47744890
   180  O          0.80413000       0.97960810       0.02255110
   181  O          0.23653000       0.57087190       0.41003110
   182  O          0.26347000       0.07087190       0.08996890
   183  O          0.76347000       0.42912810       0.58996890
   184  O          0.73653000       0.92912810       0.91003110
   185  Br         0.74122600       0.11763300       0.41159200
   186  Br         0.75877400       0.61763300       0.08840800
   187  Br         0.25877400       0.88236700       0.58840800
   188  Br         0.24122600       0.38236700       0.91159200
   189  H          0.36650000       0.56840000       0.52120000
   190  H          0.13350000       0.06840000       0.97880000
   191  H          0.63350000       0.43160000       0.47880000
   192  H          0.86650000       0.93160000       0.02120000
