data_PUFCAY
_symmetry_space_group_name_H-M    'P1'
_symmetry_Int_Tables_number       1
loop_
_symmetry_equiv_pos_site_id
_symmetry_equiv_pos_as_xyz
1 x,y,z
_cell_length_a                   9.438801
_cell_length_b                   13.13832
_cell_length_c                   14.07362
_cell_angle_alpha                113.28101
_cell_angle_beta                 101.76701
_cell_angle_gamma                96.31701
loop_
_atom_site_label
_atom_site_type_symbol
_atom_site_fract_x
_atom_site_fract_y
_atom_site_fract_z
     1  P          0.69218800       0.27477600       0.15430500
     2  P          0.30781200       0.72522400       0.84569500
     3  O          0.57132000       0.19618180       0.06087160
     4  O          0.42868000       0.80381820       0.93912840
     5  Cl         0.62700900       0.03877600       0.15690600
     6  Cl         0.37299100       0.96122400       0.84309400
     7  Cl         0.52847100       0.00157800       0.33668800
     8  Cl         0.47152900      -0.00157800       0.66331200
     9  Cl         0.53491110       0.20639100       0.54742800
    10  Cl         0.46508890       0.79360900       0.45257200
    11  Cl         0.64414100       0.45198900       0.57847600
    12  Cl         0.35585900       0.54801100       0.42152400
    13  Cl         0.73897900       0.49540600       0.40012600
    14  Cl         0.26102100       0.50459400       0.59987400
    15  Cl         0.41305800       0.37631600       0.17886600
    16  Cl         0.58694200       0.62368400       0.82113400
    17  Cl         0.36651900       0.58921700       0.14691600
    18  Cl         0.63348100       0.41078300       0.85308400
    19  Cl         0.61759110       0.72865700       0.10771600
    20  Cl         0.38240890       0.27134300       0.89228400
    21  Cl         0.92347110       0.65978700       0.11264700
    22  Cl         0.07652890       0.34021300       0.88735300
    23  Cl        -0.01246100       0.46638700       0.16885700
    24  Cl         0.01246100       0.53361300       0.83114300
    25  Cl         0.77381900       0.19645600       0.93259400
    26  Cl         0.22618100       0.80354400       0.06740600
    27  Cl         0.03919900       0.08434600       0.89356400
    28  Cl         0.96080100       0.91565400       0.10643600
    29  Cl         0.27612800       0.08978600       0.08439600
    30  Cl         0.72387200       0.91021400       0.91560400
    31  Cl         0.24868900       0.20949800       0.31676600
    32  Cl         0.75131100       0.79050200       0.68323400
    33  Cl        -0.00880100       0.32281800       0.35996600
    34  Cl         0.00880100       0.67718200       0.64003400
    35  C          0.66493000       0.26632000       0.27772000
    36  C          0.33507000       0.73368000       0.72228000
    37  C          0.62433000       0.15673000       0.26892000
    38  C          0.37567000       0.84327000       0.73108000
    39  C          0.58303000       0.13723000       0.35213000
    40  C          0.41697000       0.86277000       0.64787000
    41  C          0.58613000       0.22903000       0.44562000
    42  C          0.41387000       0.77097000       0.55438000
    43  C          0.63223000       0.33963000       0.45862000
    44  C          0.36777000       0.66037000       0.54138000
    45  C          0.67113000       0.35733000       0.37532000
    46  C          0.32887000       0.64267000       0.62468000
    47  C          0.69443000       0.41922000       0.16352000
    48  C          0.30557000       0.58078000       0.83648000
    49  C          0.55713000       0.45282000       0.16032000
    50  C          0.44287000       0.54718000       0.83968000
    51  C          0.53413000       0.54932000       0.14652000
    52  C          0.46587000       0.45068000       0.85348000
    53  C          0.64814000       0.61322000       0.13052000
    54  C          0.35186000       0.38678000       0.86948000
    55  C          0.78444000       0.58242000       0.13382000
    56  C          0.21556000       0.41758000       0.86618000
    57  C          0.80973000       0.48882000       0.15392000
    58  C          0.19027000       0.51118000       0.84608000
    59  C          0.87323000       0.23792000       0.14312000
    60  C          0.12677000       0.76208000       0.85688000
    61  C          0.89383000       0.19012000       0.03912000
    62  C          0.10617000       0.80988000       0.96088000
    63  C          0.01773000       0.14502000       0.02072000
    64  C         -0.01773000       0.85498000       0.97928000
    65  C          0.12603000       0.14832000       0.10642000
    66  C          0.87397000       0.85168000       0.89358000
    67  C          0.11273000       0.20132000       0.21002000
    68  C          0.88727000       0.79868000       0.78998000
    69  C         -0.01167000       0.24612000       0.22782000
    70  C          0.01167000       0.75388000       0.77218000
    71  Cl         0.21594110       0.20576100       0.59423300
    72  Cl         0.78405890       0.79423900       0.40576700
    73  Cl         0.93844110       0.27650800       0.59319300
    74  Cl         0.06155890       0.72349200       0.40680700
    75  Cl         0.09730110       0.00809900       0.65191300
    76  Cl         0.90269890      -0.00809900       0.34808700
    77  Cl         0.81606100       0.07623800       0.64502300
    78  Cl         0.18393900       0.92376200       0.35497700
    79  C          0.04194000       0.18413000       0.60997000
    80  C          0.95806000       0.81587000       0.39003000
    81  C         -0.00966000       0.10003000       0.63277000
    82  C          0.00966000       0.89997000       0.36723000
