data_PUFFUS
_symmetry_space_group_name_H-M    'P1'
_symmetry_Int_Tables_number       1
loop_
_symmetry_equiv_pos_site_id
_symmetry_equiv_pos_as_xyz
1 x,y,z
_cell_length_a                   17.9103
_cell_length_b                   10.701619
_cell_length_c                   13.4983
_cell_angle_alpha                90.0
_cell_angle_beta                 119.6313
_cell_angle_gamma                90.0
loop_
_atom_site_label
_atom_site_type_symbol
_atom_site_fract_x
_atom_site_fract_y
_atom_site_fract_z
     1  C          0.49615120       0.70420160       0.63825140
     2  C          0.50384880       0.70420160       0.86174860
     3  C         -0.00384880       0.20420160       0.63825140
     4  C          0.00384880       0.20420160       0.86174860
     5  C          0.50384880       0.29579840       0.36174860
     6  C          0.49615120       0.29579840       0.13825140
     7  C          0.00384880       0.79579840       0.36174860
     8  C         -0.00384880       0.79579840       0.13825140
     9  H          0.52080000       0.63300000       0.68180000
    10  H          0.47920000       0.63300000       0.81820000
    11  H          0.02080000       0.13300000       0.68180000
    12  H          0.97920000       0.13300000       0.81820000
    13  H          0.47920000       0.36700000       0.31820000
    14  H          0.52080000       0.36700000       0.18180000
    15  H          0.97920000       0.86700000       0.31820000
    16  H          0.02080000       0.86700000       0.18180000
    17  C          0.44977120       0.91468150       0.61897140
    18  C          0.55022880       0.91468150       0.88102860
    19  C          0.94977120       0.41468150       0.61897140
    20  C          0.05022880       0.41468150       0.88102860
    21  C          0.55022880       0.08531850       0.38102860
    22  C          0.44977120       0.08531850       0.11897140
    23  C          0.05022880       0.58531850       0.38102860
    24  C          0.94977120       0.58531850       0.11897140
    25  H          0.44290000      -0.01100000       0.64930000
    26  H          0.55710000      -0.01100000       0.85070000
    27  H          0.94290000       0.48900000       0.64930000
    28  H          0.05710000       0.48900000       0.85070000
    29  H          0.55710000       0.01100000       0.35070000
    30  H          0.44290000       0.01100000       0.14930000
    31  H          0.05710000       0.51100000       0.35070000
    32  H          0.94290000       0.51100000       0.14930000
    33  C          0.42370130       0.90600160       0.50439140
    34  C          0.57629870       0.90600160      -0.00439140
    35  C          0.92370130       0.40600160       0.50439140
    36  C          0.07629870       0.40600160      -0.00439140
    37  C          0.57629870       0.09399840       0.49560860
    38  C          0.42370130       0.09399840       0.00439140
    39  C          0.07629870       0.59399840       0.49560860
    40  C          0.92370130       0.59399840       0.00439140
    41  H          0.39840000       0.97550000       0.45840000
    42  H          0.60160000       0.97550000       0.04160000
    43  H          0.89840000       0.47550000       0.45840000
    44  H          0.10160000       0.47550000       0.04160000
    45  H          0.60160000       0.02450000       0.54160000
    46  H          0.39840000       0.02450000       0.95840000
    47  H          0.10160000       0.52450000       0.54160000
    48  H          0.89840000       0.52450000       0.95840000
    49  C          0.46907120       0.70404160       0.52338150
    50  C          0.53092880       0.70404160       0.97661850
    51  C          0.96907120       0.20404160       0.52338150
    52  C          0.03092880       0.20404160       0.97661850
    53  C          0.53092880       0.29595840       0.47661850
    54  C          0.46907120       0.29595840       0.02338150
    55  C          0.03092880       0.79595840       0.47661850
    56  C          0.96907120       0.79595840       0.02338150
    57  H          0.47620000       0.63160000       0.49100000
    58  H          0.52380000       0.63160000       0.00900000
    59  H          0.97620000       0.13160000       0.49100000
    60  H          0.02380000       0.13160000       0.00900000
    61  H          0.52380000       0.36840000       0.50900000
    62  H          0.47620000       0.36840000      -0.00900000
    63  H          0.02380000       0.86840000       0.50900000
    64  H          0.97620000       0.86840000      -0.00900000
    65  C          0.48637100       0.81117130       0.68843120
    66  C          0.51362900       0.81117130       0.81156880
    67  C          0.98637100       0.31117130       0.68843120
    68  C          0.01362900       0.31117130       0.81156880
    69  C          0.51362900       0.18882870       0.31156880
    70  C          0.48637100       0.18882870       0.18843120
    71  C          0.01362900       0.68882870       0.31156880
    72  C          0.98637100       0.68882870       0.18843120
    73  N          0.43312900       0.80276130       0.45658110
    74  N          0.56687100       0.80276130       0.04341890
    75  N          0.93312900       0.30276130       0.45658110
    76  N          0.06687100       0.30276130       0.04341890
    77  N          0.56687100       0.19723870       0.54341890
    78  N          0.43312900       0.19723870       0.95658110
    79  N          0.06687100       0.69723870       0.54341890
    80  N          0.93312900       0.69723870       0.95658110
    81  F          0.31878900       0.41200100       0.13362900
    82  F          0.68121100       0.41200100       0.36637100
    83  F          0.81878900       0.91200100       0.13362900
    84  F          0.18121100       0.91200100       0.36637100
    85  F          0.68121100       0.58799900       0.86637100
    86  F          0.31878900       0.58799900       0.63362900
    87  F          0.18121100       0.08799900       0.86637100
    88  F          0.81878900       0.08799900       0.63362900
    89  F          0.38044800       0.81354100       0.04501100
    90  F          0.61955200       0.81354100       0.45498900
    91  F          0.88044800       0.31354100       0.04501100
    92  F          0.11955200       0.31354100       0.45498900
    93  F          0.61955200       0.18645900       0.95498900
    94  F          0.38044800       0.18645900       0.54501100
    95  F          0.11955200       0.68645900       0.95498900
    96  F          0.88044800       0.68645900       0.54501100
    97  F          0.24519900       0.35110110       0.91471900
    98  F          0.75480100       0.35110110       0.58528100
    99  F          0.74519900       0.85110110       0.91471900
   100  F          0.25480100       0.85110110       0.58528100
   101  F          0.75480100       0.64889890       0.08528100
   102  F          0.24519900       0.64889890       0.41471900
   103  F          0.25480100       0.14889890       0.08528100
   104  F          0.74519900       0.14889890       0.41471900
   105  O          0.38410900       0.76706110       0.24230100
   106  O          0.61589100       0.76706110       0.25769900
   107  O          0.88410900       0.26706110       0.24230100
   108  O          0.11589100       0.26706110       0.25769900
   109  O          0.61589100       0.23293890       0.75769900
   110  O          0.38410900       0.23293890       0.74230100
   111  O          0.11589100       0.73293890       0.75769900
   112  O          0.88410900       0.73293890       0.74230100
   113  H          0.40190000       0.77810000       0.31050000
   114  H          0.59810000       0.77810000       0.18950000
   115  H          0.90190000       0.27810000       0.31050000
   116  H          0.09810000       0.27810000       0.18950000
   117  H          0.59810000       0.22190000       0.68950000
   118  H          0.40190000       0.22190000       0.81050000
   119  H          0.09810000       0.72190000       0.68950000
   120  H          0.90190000       0.72190000       0.81050000
   121  F          0.30691900       0.74859120       0.82729900
   122  F          0.69308100       0.74859120       0.67270100
   123  F          0.80691900       0.24859120       0.82729900
   124  F          0.19308100       0.24859120       0.67270100
   125  F          0.69308100       0.25140880       0.17270100
   126  F          0.30691900       0.25140880       0.32729900
   127  F          0.19308100       0.75140880       0.17270100
   128  F          0.80691900       0.75140880       0.32729900
   129  F          0.23514900       0.51811120       0.75894200
   130  F          0.76485100       0.51811120       0.74105800
   131  F          0.73514900       0.01811120       0.75894200
   132  F          0.26485100       0.01811120       0.74105800
   133  F          0.76485100       0.48188880       0.24105800
   134  F          0.23514900       0.48188880       0.25894200
   135  F          0.26485100       0.98188880       0.24105800
   136  F          0.73514900       0.98188880       0.25894200
   137  C          0.35217100       0.61682140       0.09940120
   138  C          0.64782900       0.61682140       0.40059880
   139  C          0.85217100       0.11682140       0.09940120
   140  C          0.14782900       0.11682140       0.40059880
   141  C          0.64782900       0.38317860       0.90059880
   142  C          0.35217100       0.38317860       0.59940120
   143  C          0.14782900       0.88317860       0.90059880
   144  C          0.85217100       0.88317860       0.59940120
   145  C          0.31759110       0.49867150       0.06163130
   146  C          0.68240890       0.49867150       0.43836870
   147  C          0.81759110      -0.00132850       0.06163130
   148  C          0.18240890      -0.00132850       0.43836870
   149  C          0.68240890       0.50132850       0.93836870
   150  C          0.31759110       0.50132850       0.56163130
   151  C          0.18240890       0.00132850       0.93836870
   152  C          0.81759110       0.00132850       0.56163130
   153  O          0.42833130       0.57290140       0.29718110
   154  O          0.57166870       0.57290140       0.20281890
   155  O          0.92833130       0.07290140       0.29718110
   156  O          0.07166870       0.07290140       0.20281890
   157  O          0.57166870       0.42709860       0.70281890
   158  O          0.42833130       0.42709860       0.79718110
   159  O          0.07166870       0.92709860       0.70281890
   160  O          0.92833130       0.92709860       0.79718110
   161  C          0.34739110       0.69832140       0.01702140
   162  C          0.65260890       0.69832140       0.48297860
   163  C          0.84739110       0.19832140       0.01702140
   164  C          0.15260890       0.19832140       0.48297860
   165  C          0.65260890       0.30167860       0.98297860
   166  C          0.34739110       0.30167860       0.51702140
   167  C          0.15260890       0.80167860       0.98297860
   168  C          0.84739110       0.80167860       0.51702140
   169  C          0.27894120       0.46524150       0.94812860
   170  C          0.72105880       0.46524150       0.55187140
   171  C          0.77894120       0.96524150       0.94812860
   172  C          0.22105880       0.96524150       0.55187140
   173  C          0.72105880       0.53475850       0.05187140
   174  C          0.27894120       0.53475850       0.44812860
   175  C          0.22105880       0.03475850       0.05187140
   176  C          0.77894120       0.03475850       0.44812860
   177  C          0.27456110       0.54934170       0.86888870
   178  C          0.72543890       0.54934170       0.63111130
   179  C          0.77456110       0.04934170       0.86888870
   180  C          0.22543890       0.04934170       0.63111130
   181  C          0.72543890       0.45065830       0.13111130
   182  C          0.27456110       0.45065830       0.36888870
   183  C          0.22543890       0.95065830       0.13111130
   184  C          0.77456110       0.95065830       0.36888870
   185  C          0.39257110       0.65043160       0.22420130
   186  C          0.60742890       0.65043160       0.27579870
   187  C          0.89257110       0.15043160       0.22420130
   188  C          0.10742890       0.15043160       0.27579870
   189  C          0.60742890       0.34956840       0.77579870
   190  C          0.39257110       0.34956840       0.72420130
   191  C          0.10742890       0.84956840       0.77579870
   192  C          0.89257110       0.84956840       0.72420130
   193  C          0.30987120       0.66596160       0.90327860
   194  C          0.69012880       0.66596160       0.59672140
   195  C          0.80987120       0.16596160       0.90327860
   196  C          0.19012880       0.16596160       0.59672140
   197  C          0.69012880       0.33403840       0.09672140
   198  C          0.30987120       0.33403840       0.40327860
   199  C          0.19012880       0.83403840       0.09672140
   200  C          0.80987120       0.83403840       0.40327860
