data_PUFLAF
_symmetry_space_group_name_H-M    'P1'
_symmetry_Int_Tables_number       1
loop_
_symmetry_equiv_pos_site_id
_symmetry_equiv_pos_as_xyz
1 x,y,z
_cell_length_a                   11.9404
_cell_length_b                   11.8784
_cell_length_c                   15.6425
_cell_angle_alpha                90.0
_cell_angle_beta                 100.9253
_cell_angle_gamma                90.0
loop_
_atom_site_label
_atom_site_type_symbol
_atom_site_fract_x
_atom_site_fract_y
_atom_site_fract_z
     1  I          0.05864200       0.08130200       0.16230516
     2  I          0.44135800       0.58130200       0.33769484
     3  I          0.94135800       0.91869800       0.83769484
     4  I          0.55864200       0.41869800       0.66230516
     5  I          0.00698200       0.32801200       0.81793817
     6  I          0.49301800       0.82801200       0.68206183
     7  I         -0.00698200       0.67198800       0.18206183
     8  I          0.50698200       0.17198800       0.31793817
     9  I          0.35898300       0.96510700       0.90426200
    10  I          0.14101700       0.46510700       0.59573800
    11  I          0.64101700       0.03489300       0.09573800
    12  I          0.85898300       0.53489300       0.40426200
    13  O          0.86667000       0.24603000      -0.00708000
    14  O          0.63333000       0.74603000       0.50708000
    15  O          0.13333000       0.75397000       0.00708000
    16  O          0.36667000       0.25397000       0.49292000
    17  O          0.00063000       0.35833000       0.06002000
    18  O          0.49937000       0.85833000       0.43998000
    19  O         -0.00063000       0.64167000       0.93998000
    20  O          0.50063000       0.14167000       0.56002000
    21  H          0.07213000       0.36223000       0.06952000
    22  H          0.42787000       0.86223000       0.43048000
    23  H          0.92787000       0.63777000       0.93048000
    24  H          0.57213000       0.13777000       0.56952000
    25  O          0.38063000       0.06033000       0.15732000
    26  O          0.11937000       0.56033000       0.34268000
    27  O          0.61937000       0.93967000       0.84268000
    28  O          0.88063000       0.43967000       0.65732000
    29  N          0.24643000       0.95407000       0.07562000
    30  N          0.25357000       0.45407000       0.42438000
    31  N          0.75357000       0.04593000       0.92438000
    32  N          0.74643000       0.54593000       0.57562000
    33  O          0.33163000       0.27633000       0.83142000
    34  O          0.16837000       0.77633000       0.66858000
    35  O          0.66837000       0.72367000       0.16858000
    36  O          0.83163000       0.22367000       0.33142000
    37  N          0.19533000       0.14453000       0.79672000
    38  N          0.30467000       0.64453000       0.70328000
    39  N          0.80467000       0.85547000       0.20328000
    40  N          0.69533000       0.35547000       0.29672000
    41  C          0.19633000       0.04223000       0.02053000
    42  C          0.30367000       0.54223000       0.47947000
    43  C          0.80367000       0.95777000       0.97947000
    44  C          0.69633000       0.45777000       0.52053000
    45  C          0.22693000       0.05973000       0.94003000
    46  C          0.27307000       0.55973000       0.55997000
    47  C          0.77307000       0.94027000       0.05997000
    48  C          0.72693000       0.44027000       0.44003000
    49  C          0.11153000       0.11043000       0.04402000
    50  C          0.38847000       0.61043000       0.45598000
    51  C          0.88847000       0.88957000       0.95598000
    52  C          0.61153000       0.38957000       0.54402000
    53  C          0.96717000       0.26763000       0.01382000
    54  C          0.53283000       0.76763000       0.48618000
    55  C          0.03283000       0.73237000       0.98618000
    56  C          0.46717000       0.23237000       0.51382000
    57  C          0.17223000       0.13903000       0.88172000
    58  C          0.32777000       0.63903000       0.61828000
    59  C          0.82777000       0.86097000       0.11828000
    60  C          0.67223000       0.36097000       0.38172000
    61  C          0.08873000       0.20863000       0.90672000
    62  C          0.41127000       0.70863000       0.59328000
    63  C          0.91127000       0.79137000       0.09328000
    64  C          0.58873000       0.29137000       0.40672000
    65  C          0.05883000       0.19513000       0.98803000
    66  C          0.44117000       0.69513000       0.51197000
    67  C          0.94117000       0.80487000       0.01197000
    68  C          0.55883000       0.30487000       0.48803000
    69  C          0.33634000       0.96796000       0.14093000
    70  C          0.16366000       0.46796000       0.35907000
    71  C          0.66366000       0.03204000       0.85907000
    72  C          0.83634000       0.53204000       0.64093000
    73  C          0.27974000       0.21034000       0.77803000
    74  C          0.22026000       0.71034000       0.72197000
    75  C          0.72026000       0.78966000       0.22197000
    76  C          0.77974000       0.28966000       0.27803000
    77  C          0.30395000       0.19365000       0.68843000
    78  C          0.19605000       0.69365000       0.81157000
    79  C          0.69605000       0.80635000       0.31157000
    80  C          0.80395000       0.30635000       0.18843000
    81  H          0.33140000       0.26451100       0.66741200
    82  H          0.16860000       0.76451100       0.83258800
    83  H          0.66860000       0.73548900       0.33258800
    84  H          0.83140000       0.23548900       0.16741200
    85  H          0.36330000       0.13630000       0.69016000
    86  H          0.13670000       0.63630000       0.80984000
    87  H          0.63670000       0.86370000       0.30984000
    88  H          0.86330000       0.36370000       0.19016000
    89  H          0.23411100       0.16940000       0.64917000
    90  H          0.26588900       0.66940000       0.85083000
    91  H          0.76588900       0.83060000       0.35083000
    92  H          0.73411100       0.33060000       0.14917000
    93  C          0.37935000       0.86296000       0.18963000
    94  C          0.12065000       0.36296000       0.31037000
    95  C          0.62065000       0.13704000       0.81037000
    96  C          0.87935000       0.63704000       0.68963000
    97  H          0.45020000       0.83880000       0.17220000
    98  H          0.04980000       0.33880000       0.32780000
    99  H          0.54980000       0.16120000       0.82780000
   100  H          0.95020000       0.66120000       0.67220000
   101  H          0.39430000       0.87829000       0.25234000
   102  H          0.10570000       0.37829000       0.24766000
   103  H          0.60570000       0.12171000       0.74766000
   104  H          0.89430000       0.62171000       0.75234000
   105  H          0.32191600       0.80338900       0.17620000
   106  H          0.17808400       0.30338900       0.32380000
   107  H          0.67808400       0.19661100       0.82380000
   108  H          0.82191600       0.69661100       0.67620000
   109  H          0.21693000       0.88617000       0.06672000
   110  H          0.28307000       0.38617000       0.43328000
   111  H          0.78307000       0.11383000       0.93328000
   112  H          0.71693000       0.61383000       0.56672000
   113  H          0.15403000       0.10433000       0.75512000
   114  H          0.34597000       0.60433000       0.74488000
   115  H          0.84597000       0.89567000       0.24488000
   116  H          0.65403000       0.39567000       0.25512000
   117  O          0.43483000       0.47763000       0.80872000
   118  O          0.06517000       0.97763000       0.69128000
   119  O          0.56517000       0.52237000       0.19128000
   120  O          0.93483000       0.02237000       0.30872000
   121  H          0.50789000       0.46740000       0.82640000
   122  H         -0.00789000       0.96740000       0.67360000
   123  H          0.49211000       0.53260000       0.17360000
   124  H          0.00789000       0.03260000       0.32640000
   125  H          0.39840000       0.42940000       0.83440000
   126  H          0.10160000       0.92940000       0.66560000
   127  H          0.60160000       0.57060000       0.16560000
   128  H          0.89840000       0.07060000       0.33440000
   129  O          0.42663000       0.41993000       0.04423000
   130  O          0.07337000       0.91993000       0.45577000
   131  O          0.57337000       0.58007000       0.95577000
   132  O          0.92663000       0.08007000       0.54423000
   133  O          0.21513000       0.39753000       0.09633000
   134  O          0.28487000       0.89753000       0.40367000
   135  O          0.78487000       0.60247000       0.90367000
   136  O          0.71513000       0.10247000       0.59633000
   137  C          0.31184000       0.33104000       0.13474000
   138  C          0.18816000       0.83104000       0.36526000
   139  C          0.68816000       0.66896000       0.86526000
   140  C          0.81184000       0.16896000       0.63474000
   141  H          0.35354000       0.36944000       0.18744000
   142  H          0.14646000       0.86944000       0.31256000
   143  H          0.64646000       0.63056000       0.81256000
   144  H          0.85354000       0.13056000       0.68744000
   145  H          0.28564000       0.25714000       0.15254000
   146  H          0.21436000       0.75714000       0.34746000
   147  H          0.71436000       0.74286000       0.84746000
   148  H          0.78564000       0.24286000       0.65254000
   149  C          0.25155000       0.50414000       0.06784000
   150  C          0.24845000       0.00414000       0.43216000
   151  C          0.74845000       0.49586000       0.93216000
   152  C          0.75155000      -0.00414000       0.56784000
   153  H          0.18435000       0.54814000       0.03944000
   154  H          0.31565000       0.04814000       0.46056000
   155  H          0.81565000       0.45186000       0.96056000
   156  H          0.68435000       0.95186000       0.53944000
   157  H          0.29165000       0.54744000       0.11854000
   158  H          0.20835000       0.04744000       0.38146000
   159  H          0.70835000       0.45256000       0.88146000
   160  H          0.79165000       0.95256000       0.61854000
   161  C          0.32985000       0.48525000       0.00474000
   162  C          0.17015000       0.98525000       0.49526000
   163  C          0.67015000       0.51475000      -0.00474000
   164  C          0.82985000       0.01475000       0.50474000
   165  H          0.35575000       0.55875000       0.98584000
   166  H          0.14425000       0.05875000       0.51416000
   167  H          0.64425000       0.44125000       0.01416000
   168  H          0.85575000       0.94125000       0.48584000
   169  H          0.28825000       0.44545000       0.95264000
   170  H          0.21175000       0.94545000       0.54736000
   171  H          0.71175000       0.55455000       0.04736000
   172  H          0.78825000       0.05455000       0.45264000
   173  C          0.38985000       0.31384000       0.07184000
   174  C          0.11015000       0.81384000       0.42816000
   175  C          0.61015000       0.68616000       0.92816000
   176  C          0.88985000       0.18616000       0.57184000
   177  H          0.34965000       0.27134000       0.02064000
   178  H          0.15035000       0.77134000       0.47936000
   179  H          0.65035000       0.72866000       0.97936000
   180  H          0.84965000       0.22866000       0.52064000
   181  H          0.45695000       0.26934000       0.09974000
   182  H          0.04305000       0.76934000       0.40026000
   183  H          0.54305000       0.73066000       0.90026000
   184  H          0.95695000       0.23066000       0.59974000
