data_PUGZEA
_symmetry_space_group_name_H-M    'P1'
_symmetry_Int_Tables_number       1
loop_
_symmetry_equiv_pos_site_id
_symmetry_equiv_pos_as_xyz
1 x,y,z
_cell_length_a                   6.997001
_cell_length_b                   18.49973
_cell_length_c                   19.19483
_cell_angle_alpha                90.0
_cell_angle_beta                 90.50759
_cell_angle_gamma                90.0
loop_
_atom_site_label
_atom_site_type_symbol
_atom_site_fract_x
_atom_site_fract_y
_atom_site_fract_z
     1  O          0.16274000       0.42115150       0.76259140
     2  O          0.33726000       0.92115150       0.73740860
     3  O          0.83726000       0.57884850       0.23740860
     4  O          0.66274000       0.07884850       0.26259140
     5  N          0.27895000       0.41661180       0.60823170
     6  N          0.22105000       0.91661180       0.89176830
     7  N          0.72105000       0.58338820       0.39176830
     8  N          0.77895000       0.08338820       0.10823170
     9  H          0.25910000       0.46300000       0.61510000
    10  H          0.24090000       0.96300000       0.88490000
    11  H          0.74090000       0.53700000       0.38490000
    12  H          0.75910000       0.03700000       0.11510000
    13  N          0.15145000       0.29477190       0.82975160
    14  N          0.34855000       0.79477190       0.67024840
    15  N          0.84855000       0.70522810       0.17024840
    16  N          0.65145000       0.20522810       0.32975160
    17  H          0.14740000       0.25470000       0.85440000
    18  H          0.35260000       0.75470000       0.64560000
    19  H          0.85260000       0.74530000       0.14560000
    20  H          0.64740000       0.24530000       0.35440000
    21  H          0.11880000       0.33620000       0.84880000
    22  H          0.38120000       0.83620000       0.65120000
    23  H          0.88120000       0.66380000       0.15120000
    24  H          0.61880000       0.16380000       0.34880000
    25  N          0.35275000       0.17414170       0.62134170
    26  N          0.14725000       0.67414170       0.87865830
    27  N          0.64725000       0.82585830       0.37865830
    28  N          0.85275000       0.32585830       0.12134170
    29  C          0.30195000       0.29952000       0.62450190
    30  C          0.19805000       0.79952000       0.87549810
    31  C          0.69805000       0.70048000       0.37549810
    32  C          0.80195000       0.20048000       0.12450190
    33  C          0.25775000       0.36392000       0.65702000
    34  C          0.24225000       0.86392000       0.84298000
    35  C          0.74225000       0.63608000       0.34298000
    36  C          0.75775000       0.13608000       0.15702000
    37  C          0.20545000       0.36742000       0.72882000
    38  C          0.29455000       0.86742000       0.77118000
    39  C          0.79455000       0.63258000       0.27118000
    40  C          0.70545000       0.13258000       0.22882000
    41  C          0.20665000       0.29282000       0.76400190
    42  C          0.29335000       0.79282000       0.73599810
    43  C          0.79335000       0.70718000       0.23599810
    44  C          0.70665000       0.20718000       0.26400190
    45  C          0.25995000       0.22922000       0.73099190
    46  C          0.24005000       0.72922000       0.76900810
    47  C          0.74005000       0.77078000       0.26900810
    48  C          0.75995000       0.27078000       0.23099190
    49  H          0.26560000       0.18510000       0.75630000
    50  H          0.23440000       0.68510000       0.74370000
    51  H          0.73440000       0.81490000       0.24370000
    52  H          0.76560000       0.31490000       0.25630000
    53  C          0.30535000       0.23072000       0.65967190
    54  C          0.19465000       0.73072000       0.84032810
    55  C          0.69465000       0.76928000       0.34032810
    56  C          0.80535000       0.26928000       0.15967190
    57  C          0.34256000       0.17902000       0.54372000
    58  C          0.15744000       0.67902000       0.95628000
    59  C          0.65744000       0.82098000       0.45628000
    60  C          0.84256000       0.32098000       0.04372000
    61  H          0.20740000       0.17330000       0.52890000
    62  H          0.29260000       0.67330000       0.97110000
    63  H          0.79260000       0.82670000       0.47110000
    64  H          0.70740000       0.32670000       0.02890000
    65  H          0.41500000       0.13800000       0.52390000
    66  H          0.08500000       0.63800000       0.97610000
    67  H          0.58500000       0.86200000       0.47610000
    68  H          0.91500000       0.36200000       0.02390000
    69  C          0.42006000       0.24962000       0.51242000
    70  C          0.07994000       0.74962000       0.98758000
    71  C          0.57994000       0.75038000       0.48758000
    72  C          0.92006000       0.25038000       0.01242000
    73  H          0.56150000       0.24870000       0.51240000
    74  H          0.93850000       0.74870000       0.98760000
    75  H          0.43850000       0.75130000       0.48760000
    76  H          0.06150000       0.25130000       0.01240000
    77  H          0.37450000       0.25500000       0.46370000
    78  H          0.12550000       0.75500000       0.03630000
    79  H          0.62550000       0.74500000       0.53630000
    80  H          0.87450000       0.24500000       0.96370000
    81  C          0.35065000       0.31202000       0.55565190
    82  C          0.14935000       0.81202000       0.94434810
    83  C          0.64935000       0.68798000       0.44434810
    84  C          0.85065000       0.18798000       0.05565190
    85  C          0.33635000       0.38602000       0.54672000
    86  C          0.16365000       0.88602000       0.95328000
    87  C          0.66365000       0.61398000       0.45328000
    88  C          0.83635000       0.11398000       0.04672000
    89  H          0.36190000       0.41140000       0.50480000
    90  H          0.13810000       0.91140000      -0.00480000
    91  H          0.63810000       0.58860000       0.49520000
    92  H          0.86190000       0.08860000       0.00480000
    93  C          0.36907000       0.10092000       0.64912000
    94  C          0.13093000       0.60092000       0.85088000
    95  C          0.63093000       0.89908000       0.35088000
    96  C          0.86907000       0.39908000       0.14912000
    97  H          0.46940000       0.07480000       0.62430000
    98  H          0.03060000       0.57480000       0.87570000
    99  H          0.53060000       0.92520000       0.37570000
   100  H          0.96940000       0.42520000       0.12430000
   101  H          0.24700000       0.07560000       0.64300000
   102  H          0.25300000       0.57560000       0.85700000
   103  H          0.75300000       0.92440000       0.35700000
   104  H          0.74700000       0.42440000       0.14300000
   105  H          0.40170000       0.10310000       0.69880000
   106  H          0.09830000       0.60310000       0.80120000
   107  H          0.59830000       0.89690000       0.30120000
   108  H          0.90170000       0.39690000       0.19880000
   109  O          0.72684000       0.17861140       0.75883140
   110  O          0.77316000       0.67861140       0.74116860
   111  O          0.27316000       0.82138860       0.24116860
   112  O          0.22684000       0.32138860       0.25883140
   113  N          0.82574000       0.26336160       0.62583150
   114  N          0.67426000       0.76336160       0.87416850
   115  N          0.17426000       0.73663840       0.37416850
   116  N          0.32574000       0.23663840       0.12583150
   117  H          0.84740000       0.21840000       0.61300000
   118  H          0.65260000       0.71840000       0.88700000
   119  H          0.15260000       0.78160000       0.38700000
   120  H          0.34740000       0.28160000       0.11300000
   121  N          0.58984000       0.25382170       0.86564160
   122  N          0.91016000       0.75382170       0.63435840
   123  N          0.41016000       0.74617830       0.13435840
   124  N          0.08984000       0.24617830       0.36564160
   125  H          0.54240000       0.27590000       0.90220000
   126  H          0.95760000       0.77590000       0.59780000
   127  H          0.45760000       0.72410000       0.09780000
   128  H          0.04240000       0.22410000       0.40220000
   129  H          0.60240000       0.20650000       0.86560000
   130  H          0.89760000       0.70650000       0.63440000
   131  H          0.39760000       0.79350000       0.13440000
   132  H          0.10240000       0.29350000       0.36560000
   133  N          0.68165000       0.47319170       0.73473170
   134  N          0.81835000       0.97319170       0.76526830
   135  N          0.31835000       0.52680830       0.26526830
   136  N          0.18165000       0.02680830       0.23473170
   137  C          0.75475000       0.35962000       0.68869180
   138  C          0.74525000       0.85962000       0.81130820
   139  C          0.24525000       0.64038000       0.31130820
   140  C          0.25475000       0.14038000       0.18869180
   141  C          0.77115000       0.28478190       0.69104180
   142  C          0.72885000       0.78478190       0.80895820
   143  C          0.22885000       0.71521810       0.30895820
   144  C          0.27115000       0.21521810       0.19104180
   145  C          0.71965000       0.24449190       0.75113190
   146  C          0.78035000       0.74449190       0.74886810
   147  C          0.28035000       0.75550810       0.24886810
   148  C          0.21965000       0.25550810       0.25113190
   149  C          0.62715000       0.36632000       0.80648190
   150  C          0.87285000       0.86632000       0.69351810
   151  C          0.37285000       0.63368000       0.19351810
   152  C          0.12715000       0.13368000       0.30648190
   153  H          0.57680000       0.39300000       0.84440000
   154  H          0.92320000       0.89300000       0.65560000
   155  H          0.42320000       0.60700000       0.15560000
   156  H          0.07680000       0.10700000       0.34440000
   157  C          0.64225000       0.29182000       0.81065180
   158  C          0.85775000       0.79182000       0.68934820
   159  C          0.35775000       0.70818000       0.18934820
   160  C          0.14225000       0.20818000       0.31065180
   161  C          0.68695000       0.40255190       0.74564190
   162  C          0.81305000       0.90255190       0.75435810
   163  C          0.31305000       0.59744810       0.25435810
   164  C          0.18695000       0.09744810       0.24564190
   165  C          0.78716000       0.50622000       0.67532000
   166  C          0.71284000       0.00622000       0.82468000
   167  C          0.21284000       0.49378000       0.32468000
   168  C          0.28716000      -0.00622000       0.17532000
   169  H          0.92310000       0.51150000       0.68900000
   170  H          0.57690000       0.01150000       0.81100000
   171  H          0.07690000       0.48850000       0.31100000
   172  H          0.42310000       0.98850000       0.18900000
   173  H          0.73550000       0.55520000       0.66680000
   174  H          0.76450000       0.05520000       0.83320000
   175  H          0.26450000       0.44480000       0.33320000
   176  H          0.23550000       0.94480000       0.16680000
   177  C          0.77625000       0.46332000       0.60712000
   178  C          0.72375000       0.96332000       0.89288000
   179  C          0.22375000       0.53668000       0.39288000
   180  C          0.27625000       0.03668000       0.10712000
   181  H          0.65180000       0.47230000       0.58370000
   182  H          0.84820000       0.97230000       0.91630000
   183  H          0.34820000       0.52770000       0.41630000
   184  H          0.15180000       0.02770000       0.08370000
   185  H          0.87900000       0.47920000       0.57550000
   186  H          0.62100000       0.97920000       0.92450000
   187  H          0.12100000       0.52080000       0.42450000
   188  H          0.37900000       0.02080000       0.07550000
   189  C          0.79765000       0.38412000       0.62220190
   190  C          0.70235000       0.88412000       0.87779810
   191  C          0.20235000       0.61588000       0.37779810
   192  C          0.29765000       0.11588000       0.12220190
   193  C          0.84125000       0.32232000       0.58402190
   194  C          0.65875000       0.82232000       0.91597810
   195  C          0.15875000       0.67768000       0.41597810
   196  C          0.34125000       0.17768000       0.08402190
   197  H          0.87620000       0.32150000       0.53630000
   198  H          0.62380000       0.82150000       0.96370000
   199  H          0.12380000       0.67850000       0.46370000
   200  H          0.37620000       0.17850000       0.03630000
   201  C          0.60767000       0.52272000       0.78713000
   202  C          0.89233000       0.02272000       0.71287000
   203  C          0.39233000       0.47728000       0.21287000
   204  C          0.10767000       0.97728000       0.28713000
   205  H          0.58330000       0.57000000       0.76580000
   206  H          0.91670000       0.07000000       0.73420000
   207  H          0.41670000       0.43000000       0.23420000
   208  H          0.08330000       0.93000000       0.26580000
   209  H          0.70150000       0.52800000       0.82490000
   210  H          0.79850000       0.02800000       0.67510000
   211  H          0.29850000       0.47200000       0.17510000
   212  H          0.20150000       0.97200000       0.32490000
   213  H          0.48810000       0.50340000       0.80590000
   214  H          0.01190000       0.00340000       0.69410000
   215  H          0.51190000       0.49660000       0.19410000
   216  H         -0.01190000      -0.00340000       0.30590000
   217  I          0.26815400       0.60538200       0.60340200
   218  I          0.23184600       0.10538200       0.89659800
   219  I          0.73184600       0.39461800       0.39659800
   220  I          0.76815400       0.89461800       0.10340200
   221  O          0.88444000       0.17442150       0.47256150
   222  O          0.61556000       0.67442150       0.02743850
   223  O          0.11556000       0.82557850       0.52743850
   224  O          0.38444000       0.32557850       0.97256150
   225  O          0.83455000       0.12352150       0.57648140
   226  O          0.66545000       0.62352150       0.92351860
   227  O          0.16545000       0.87647850       0.42351860
   228  O          0.33455000       0.37647850       0.07648140
   229  C          0.83526000       0.12432000       0.50942000
   230  C          0.66474000       0.62432000       0.99058000
   231  C          0.16474000       0.87568000       0.49058000
   232  C          0.33526000       0.37568000       0.00942000
   233  C          0.76776000       0.05642000       0.47432000
   234  C          0.73224000       0.55642000       0.02568000
   235  C          0.23224000       0.94358000       0.52568000
   236  C          0.26776000       0.44358000       0.97432000
   237  F          0.70944000       0.00394120       0.51703130
   238  F          0.79056000       0.50394120       0.98296870
   239  F          0.29056000      -0.00394120       0.48296870
   240  F          0.20944000       0.49605880       0.01703130
   241  F          0.61804000       0.07106140       0.43154120
   242  F          0.88196000       0.57106140       0.06845880
   243  F          0.38196000       0.92893860       0.56845880
   244  F          0.11804000       0.42893860       0.93154120
   245  F          0.90444000       0.02783140       0.43438130
   246  F          0.59556000       0.52783140       0.06561870
   247  F          0.09556000       0.97216860       0.56561870
   248  F          0.40444000       0.47216860       0.93438130
