data_PUJJOU
_symmetry_space_group_name_H-M    'P1'
_symmetry_Int_Tables_number       1
loop_
_symmetry_equiv_pos_site_id
_symmetry_equiv_pos_as_xyz
1 x,y,z
_cell_length_a                   3.69233
_cell_length_b                   37.8573
_cell_length_c                   14.84151
_cell_angle_alpha                90.0
_cell_angle_beta                 95.1112
_cell_angle_gamma                90.0
loop_
_atom_site_label
_atom_site_type_symbol
_atom_site_fract_x
_atom_site_fract_y
_atom_site_fract_z
     1  N          0.62318000       0.17540600       0.49397180
     2  N          0.62318000       0.82459400      -0.00602820
     3  N          0.12318000       0.67540600       0.49397180
     4  N          0.12318000       0.32459400      -0.00602820
     5  H          0.44750000       0.16580000       0.45570000
     6  H          0.44750000       0.83420000       0.95570000
     7  H          0.94750000       0.66580000       0.45570000
     8  H          0.94750000       0.33420000       0.95570000
     9  H          0.60410000       0.17210000       0.55340000
    10  H          0.60410000       0.82790000       0.05340000
    11  H          0.10410000       0.67210000       0.55340000
    12  H          0.10410000       0.32790000       0.05340000
    13  N          0.68817000       0.22109600       0.39298160
    14  N          0.68817000       0.77890400       0.89298160
    15  N          0.18817000       0.72109600       0.39298160
    16  N          0.18817000       0.27890400       0.89298160
    17  H          0.56010000       0.20720000       0.35250000
    18  H          0.56010000       0.79280000       0.85250000
    19  H          0.06010000       0.70720000       0.35250000
    20  H          0.06010000       0.29280000       0.85250000
    21  N          0.72019000       0.26246700       0.28055190
    22  N          0.72019000       0.73753300       0.78055190
    23  N          0.22019000       0.76246700       0.28055190
    24  N          0.22019000       0.23753300       0.78055190
    25  H          0.77870000       0.28480000       0.26720000
    26  H          0.77870000       0.71520000       0.76720000
    27  H          0.27870000       0.78480000       0.26720000
    28  H          0.27870000       0.21520000       0.76720000
    29  H          0.60320000       0.24540000       0.24730000
    30  H          0.60320000       0.75460000       0.74730000
    31  H          0.10320000       0.74540000       0.24730000
    32  H          0.10320000       0.25460000       0.74730000
    33  C          0.74088000       0.20826800       0.47902000
    34  C          0.74088000       0.79173200       0.97902000
    35  C          0.24088000       0.70826800       0.47902000
    36  C          0.24088000       0.29173200       0.97902000
    37  C          0.92109000       0.22967800       0.54522000
    38  C          0.92109000       0.77032200       0.04522000
    39  C          0.42109000       0.72967800       0.54522000
    40  C          0.42109000       0.27032200       0.04522000
    41  H         -0.03540000       0.22170000       0.60590000
    42  H         -0.03540000       0.77830000       0.10590000
    43  H          0.46460000       0.72170000       0.60590000
    44  H          0.46460000       0.27830000       0.10590000
    45  C          0.03488000       0.26286800       0.52022000
    46  C          0.03488000       0.73713200       0.02022000
    47  C          0.53488000       0.76286800       0.52022000
    48  C          0.53488000       0.23713200       0.02022000
    49  H          0.15890000       0.27750000       0.56490000
    50  H          0.15890000       0.72250000       0.06490000
    51  H          0.65890000       0.77750000       0.56490000
    52  H          0.65890000       0.22250000       0.06490000
    53  C         -0.02482000       0.27550800       0.43292000
    54  C         -0.02482000       0.72449200       0.93292000
    55  C          0.47518000       0.77550800       0.43292000
    56  C          0.47518000       0.22449200       0.93292000
    57  H          0.05390000       0.29840000       0.41770000
    58  H          0.05390000       0.70160000       0.91770000
    59  H          0.55390000       0.79840000       0.41770000
    60  H          0.55390000       0.20160000       0.91770000
    61  C          0.79608000       0.25365800       0.36792000
    62  C          0.79608000       0.74634200       0.86792000
    63  C          0.29608000       0.75365800       0.36792000
    64  C          0.29608000       0.24634200       0.86792000
    65  N          0.52678000       0.09027700       0.51218190
    66  N          0.52678000       0.90972300       0.01218190
    67  N          0.02678000       0.59027700       0.51218190
    68  N          0.02678000       0.40972300       0.01218190
    69  H          0.68690000       0.09880000       0.47530000
    70  H          0.68690000       0.90120000       0.97530000
    71  H          0.18690000       0.59880000       0.47530000
    72  H          0.18690000       0.40120000       0.97530000
    73  H          0.53520000       0.10360000       0.56250000
    74  H          0.53520000       0.89640000       0.06250000
    75  H          0.03520000       0.60360000       0.56250000
    76  H          0.03520000       0.39640000       0.06250000
    77  N          0.42767000       0.03920700       0.42957180
    78  N          0.42767000       0.96079300       0.92957180
    79  N          0.92767000       0.53920700       0.42957180
    80  N          0.92767000       0.46079300       0.92957180
    81  H          0.51800000       0.05200000       0.38570000
    82  H          0.51800000       0.94800000       0.88570000
    83  H          0.01800000       0.55200000       0.38570000
    84  H          0.01800000       0.44800000       0.88570000
    85  N          0.35048000       0.99174300       0.33294190
    86  N          0.35048000       0.00825700       0.83294190
    87  N          0.85048000       0.49174300       0.33294190
    88  N          0.85048000       0.50825700       0.83294190
    89  H          0.21890000       0.97250000       0.31580000
    90  H          0.21890000       0.02750000       0.81580000
    91  H          0.71890000       0.47250000       0.31580000
    92  H          0.71890000       0.52750000       0.81580000
    93  H          0.44570000       0.00430000       0.28930000
    94  H          0.44570000       0.99570000       0.78930000
    95  H          0.94570000       0.50430000       0.28930000
    96  H          0.94570000       0.49570000       0.78930000
    97  C          0.41648000       0.05637800       0.50962000
    98  C          0.41648000       0.94362200       0.00962000
    99  C          0.91648000       0.55637800       0.50962000
   100  C          0.91648000       0.44362200       0.00962000
   101  C          0.28869000       0.03842800       0.58202000
   102  C          0.28869000       0.96157200       0.08202000
   103  C          0.78869000       0.53842800       0.58202000
   104  C          0.78869000       0.46157200       0.08202000
   105  H          0.27770000       0.04970000       0.63890000
   106  H          0.27770000       0.95030000       0.13890000
   107  H          0.77770000       0.54970000       0.63890000
   108  H          0.77770000       0.45030000       0.13890000
   109  C          0.17708000       0.00351900       0.56932000
   110  C          0.17708000      -0.00351900       0.06932000
   111  C          0.67708000       0.50351900       0.56932000
   112  C          0.67708000       0.49648100       0.06932000
   113  H          0.08860000       0.99100000       0.61840000
   114  H          0.08860000       0.00900000       0.11840000
   115  H          0.58860000       0.49100000       0.61840000
   116  H          0.58860000       0.50900000       0.11840000
   117  C          0.19149000       0.98646100       0.48702000
   118  C          0.19149000       0.01353900       0.98702000
   119  C          0.69149000       0.48646100       0.48702000
   120  C          0.69149000       0.51353900       0.98702000
   121  H          0.11470000       0.96260000       0.47970000
   122  H          0.11470000       0.03740000       0.97970000
   123  H          0.61470000       0.46260000       0.47970000
   124  H          0.61470000       0.53740000       0.97970000
   125  C          0.32008000       0.00492800       0.41552000
   126  C          0.32008000       0.99507200       0.91552000
   127  C          0.82008000       0.50492800       0.41552000
   128  C          0.82008000       0.49507200       0.91552000
   129  O          0.15347000       0.15535700       0.33076160
   130  O          0.15347000       0.84464300       0.83076160
   131  O          0.65347000       0.65535700       0.33076160
   132  O          0.65347000       0.34464300       0.83076160
   133  H          0.03800000       0.12790000       0.33750000
   134  H          0.03800000       0.87210000       0.83750000
   135  H          0.53800000       0.62790000       0.33750000
   136  H          0.53800000       0.37210000       0.83750000
   137  O          0.33987000       0.19199600       0.23096170
   138  O          0.33987000       0.80800400       0.73096170
   139  O          0.83987000       0.69199600       0.23096170
   140  O          0.83987000       0.30800400       0.73096170
   141  O          0.87623000       0.09909700       0.34030160
   142  O          0.87623000       0.90090300       0.84030160
   143  O          0.37623000       0.59909700       0.34030160
   144  O          0.37623000       0.40090300       0.84030160
   145  O          0.64123000       0.05715700       0.25269180
   146  O          0.64123000       0.94284300       0.75269180
   147  O          0.14123000       0.55715700       0.25269180
   148  O          0.14123000       0.44284300       0.75269180
   149  C          0.18568000       0.16417800       0.24842000
   150  C          0.18568000       0.83582200       0.74842000
   151  C          0.68568000       0.66417800       0.24842000
   152  C          0.68568000       0.33582200       0.74842000
   153  C          0.03327000       0.14044800       0.17152000
   154  C          0.03327000       0.85955200       0.67152000
   155  C          0.53327000       0.64044800       0.17152000
   156  C          0.53327000       0.35955200       0.67152000
   157  C          0.06748000       0.15452800       0.08532000
   158  C          0.06748000       0.84547200       0.58532000
   159  C          0.56748000       0.65452800       0.08532000
   160  C          0.56748000       0.34547200       0.58532000
   161  H          0.17350000       0.17730000       0.08110000
   162  H          0.17350000       0.82270000       0.58110000
   163  H          0.67350000       0.67730000       0.08110000
   164  H          0.67350000       0.32270000       0.58110000
   165  C          0.95472000       0.13698800       0.00672000
   166  C          0.95472000       0.86301200       0.50672000
   167  C          0.45472000       0.63698800       0.00672000
   168  C          0.45472000       0.36301200       0.50672000
   169  H         -0.01350000       0.14720000       0.94950000
   170  H         -0.01350000       0.85280000       0.44950000
   171  H          0.48650000       0.64720000       0.94950000
   172  H          0.48650000       0.35280000       0.44950000
   173  C          0.79362000       0.10402800       0.01262000
   174  C          0.79362000       0.89597200       0.51262000
   175  C          0.29362000       0.60402800       0.01262000
   176  C          0.29362000       0.39597200       0.51262000
   177  H          0.70950000       0.09160000       0.95910000
   178  H          0.70950000       0.90840000       0.45910000
   179  H          0.20950000       0.59160000       0.95910000
   180  H          0.20950000       0.40840000       0.45910000
   181  C          0.75632000       0.08934800       0.09642000
   182  C          0.75632000       0.91065200       0.59642000
   183  C          0.25632000       0.58934800       0.09642000
   184  C          0.25632000       0.41065200       0.59642000
   185  H          0.65020000       0.06660000       0.09940000
   186  H          0.65020000       0.93340000       0.59940000
   187  H          0.15020000       0.56660000       0.09940000
   188  H          0.15020000       0.43340000       0.59940000
   189  C          0.86882000       0.10676800       0.17682000
   190  C          0.86882000       0.89323200       0.67682000
   191  C          0.36882000       0.60676800       0.17682000
   192  C          0.36882000       0.39323200       0.67682000
   193  C          0.79181000       0.08613900       0.26092000
   194  C          0.79181000       0.91386100       0.76092000
   195  C          0.29181000       0.58613900       0.26092000
   196  C          0.29181000       0.41386100       0.76092000
   197  N          0.52558000       0.14787700       0.72886180
   198  N          0.52558000       0.85212300       0.22886180
   199  N          0.02558000       0.64787700       0.72886180
   200  N          0.02558000       0.35212300       0.22886180
   201  O          0.48688000       0.17644600       0.68613170
   202  O          0.48688000       0.82355400       0.18613170
   203  O         -0.01312000       0.67644600       0.68613170
   204  O         -0.01312000       0.32355400       0.18613170
   205  O          0.64507000       0.12132600       0.69036160
   206  O          0.64507000       0.87867400       0.19036160
   207  O          0.14507000       0.62132600       0.69036160
   208  O          0.14507000       0.37867400       0.19036160
   209  O          0.45127000       0.14595600       0.80893160
   210  O          0.45127000       0.85404400       0.30893160
   211  O          0.95127000       0.64595600       0.80893160
   212  O          0.95127000       0.35404400       0.30893160
   213  O          0.09328000       0.07824600       0.81011180
   214  O          0.09328000       0.92175400       0.31011180
   215  O          0.59328000       0.57824600       0.81011180
   216  O          0.59328000       0.42175400       0.31011180
   217  H         -0.03870000       0.09320000       0.77970000
   218  H         -0.03870000       0.90680000       0.27970000
   219  H          0.46130000       0.59320000       0.77970000
   220  H          0.46130000       0.40680000       0.27970000
   221  H          0.23330000       0.09590000       0.80750000
   222  H          0.23330000       0.90410000       0.30750000
   223  H          0.73330000       0.59590000       0.80750000
   224  H          0.73330000       0.40410000       0.30750000
