data_PUKDIJ
_symmetry_space_group_name_H-M    'P1'
_symmetry_Int_Tables_number       1
loop_
_symmetry_equiv_pos_site_id
_symmetry_equiv_pos_as_xyz
1 x,y,z
_cell_length_a                   18.561416
_cell_length_b                   5.17695
_cell_length_c                   12.361311
_cell_angle_alpha                90.0
_cell_angle_beta                 97.0162
_cell_angle_gamma                90.0
loop_
_atom_site_label
_atom_site_type_symbol
_atom_site_fract_x
_atom_site_fract_y
_atom_site_fract_z
     1  Br         0.47013411       0.30630500       0.88601818
     2  Br         0.52986589       0.80630500       0.61398182
     3  Br         0.52986589       0.69369500       0.11398182
     4  Br         0.47013411       0.19369500       0.38601818
     5  N          0.31375100       0.82007000       0.73265140
     6  N          0.68624900       0.32007000       0.76734860
     7  N          0.68624900       0.17993000       0.26734860
     8  N          0.31375100       0.67993000       0.23265140
     9  N          0.25884110       0.77826000       0.55605150
    10  N          0.74115890       0.27826000       0.94394850
    11  N          0.74115890       0.22174000       0.44394850
    12  N          0.25884110       0.72174000       0.05605150
    13  H          0.23640000       0.64420000       0.57580000
    14  H          0.76360000       0.14420000       0.92420000
    15  H          0.76360000       0.35580000       0.42420000
    16  H          0.23640000       0.85580000       0.07580000
    17  H          0.25190000       0.82960000       0.48940000
    18  H          0.74810000       0.32960000       0.01060000
    19  H          0.74810000       0.17040000       0.51060000
    20  H          0.25190000       0.67040000      -0.01060000
    21  C          0.30452100       0.90716000       0.62906160
    22  C          0.69547900       0.40716000       0.87093840
    23  C          0.69547900       0.09284000       0.37093840
    24  C          0.30452100       0.59284000       0.12906160
    25  C          0.34283110       0.12604000       0.59759170
    26  C          0.65716890       0.62604000       0.90240830
    27  C          0.65716890       0.87396000       0.40240830
    28  C          0.34283110       0.37396000       0.09759170
    29  H          0.33510000       0.18610000       0.52620000
    30  H          0.66490000       0.68610000       0.97380000
    31  H          0.66490000       0.81390000       0.47380000
    32  H          0.33510000       0.31390000       0.02620000
    33  C          0.39160120       0.24904000       0.67336190
    34  C          0.60839880       0.74904000       0.82663810
    35  C          0.60839880       0.75096000       0.32663810
    36  C          0.39160120       0.25096000       0.17336190
    37  H          0.41720000       0.39300000       0.65430000
    38  H          0.58280000       0.89300000       0.84570000
    39  H          0.58280000       0.60700000       0.34570000
    40  H          0.41720000       0.10700000       0.15430000
    41  C          0.40175110       0.15164000       0.78013170
    42  C          0.59824890       0.65164000       0.71986830
    43  C          0.59824890       0.84836000       0.21986830
    44  C          0.40175110       0.34836000       0.28013170
    45  C          0.36211110       0.94086000       0.80675160
    46  C          0.63788890       0.44086000       0.69324840
    47  C          0.63788890       0.05914000       0.19324840
    48  C          0.36211110       0.55914000       0.30675160
    49  H          0.36880000       0.87960000       0.87800000
    50  H          0.63120000       0.37960000       0.62200000
    51  H          0.63120000       0.12040000       0.12200000
    52  H          0.36880000       0.62040000       0.37800000
    53  O          0.23842700       0.47323000       0.82571100
    54  O          0.76157300      -0.02677000       0.67428900
    55  O          0.76157300       0.52677000       0.17428900
    56  O          0.23842700       0.02677000       0.32571100
    57  H          0.26680000       0.55500000       0.79290000
    58  H          0.73320000       0.05500000       0.70710000
    59  H          0.73320000       0.44500000       0.20710000
    60  H          0.26680000       0.94500000       0.29290000
    61  O          0.19345900       0.35463000       0.65709110
    62  O          0.80654100       0.85463000       0.84290890
    63  O          0.80654100       0.64537000       0.34290890
    64  O          0.19345900       0.14537000       0.15709110
    65  C          0.13808110       0.14364000       0.91317150
    66  C          0.86191890       0.64364000       0.58682850
    67  C          0.86191890       0.85636000       0.08682850
    68  C          0.13808110       0.35636000       0.41317150
    69  H          0.16160000       0.26600000       0.96000000
    70  H          0.83840000       0.76600000       0.54000000
    71  H          0.83840000       0.73400000       0.04000000
    72  H          0.16160000       0.23400000       0.46000000
    73  C          0.09178110       0.96296000       0.95201160
    74  C          0.90821890       0.46296000       0.54798840
    75  C          0.90821890       0.03704000       0.04798840
    76  C          0.09178110       0.53704000       0.45201160
    77  H          0.08420000       0.96590000       0.02500000
    78  H          0.91580000       0.46590000       0.47500000
    79  H          0.91580000       0.03410000       0.97500000
    80  H          0.08420000       0.53410000       0.52500000
    81  C          0.05710110       0.78006000       0.88304180
    82  C          0.94289890       0.28006000       0.61695820
    83  C          0.94289890       0.21994000       0.11695820
    84  C          0.05710110       0.71994000       0.38304180
    85  H          0.02650000       0.65990000       0.90970000
    86  H          0.97350000       0.15990000       0.59030000
    87  H          0.97350000       0.34010000       0.09030000
    88  H          0.02650000       0.84010000       0.40970000
    89  C          0.06795120       0.77556000       0.77347180
    90  C          0.93204880       0.27556000       0.72652820
    91  C          0.93204880       0.22444000       0.22652820
    92  C          0.06795120       0.72444000       0.27347180
    93  H          0.04460000       0.65230000       0.72690000
    94  H          0.95540000       0.15230000       0.77310000
    95  H          0.95540000       0.34770000       0.27310000
    96  H          0.04460000       0.84770000       0.22690000
    97  C          0.11352100       0.95496000       0.73404150
    98  C          0.88647900       0.45496000       0.76595850
    99  C          0.88647900       0.04504000       0.26595850
   100  C          0.11352100       0.54504000       0.23404150
   101  H          0.12050000       0.95270000       0.66080000
   102  H          0.87950000       0.45270000       0.83920000
   103  H          0.87950000       0.04730000       0.33920000
   104  H          0.12050000       0.54730000       0.16080000
   105  C          0.14884100       0.13894000       0.80347150
   106  C          0.85115900       0.63894000       0.69652850
   107  C          0.85115900       0.86106000       0.19652850
   108  C          0.14884100       0.36106000       0.30347150
   109  C          0.19580100       0.33214000       0.75609150
   110  C          0.80419900       0.83214000       0.74390850
   111  C          0.80419900       0.66786000       0.24390850
   112  C          0.19580100       0.16786000       0.25609150
