data_PUMNAN
_symmetry_space_group_name_H-M    'P1'
_symmetry_Int_Tables_number       1
loop_
_symmetry_equiv_pos_site_id
_symmetry_equiv_pos_as_xyz
1 x,y,z
_cell_length_a                   5.999012
_cell_length_b                   8.177216
_cell_length_c                   10.4192
_cell_angle_alpha                86.883
_cell_angle_beta                 84.733
_cell_angle_gamma                77.033
loop_
_atom_site_label
_atom_site_type_symbol
_atom_site_fract_x
_atom_site_fract_y
_atom_site_fract_z
     1  N          0.32332180       0.48367140       0.74584100
     2  N          0.67667820       0.51632860       0.25415900
     3  N          0.65845190       0.39095140       0.65165100
     4  N          0.34154810       0.60904860       0.34834900
     5  H          0.78180000       0.32320000       0.62240000
     6  H          0.21820000       0.67680000       0.37760000
     7  C          0.48072000       0.34647170       0.71624120
     8  C          0.51928000       0.65352830       0.28375880
     9  H          0.46800000       0.23680000       0.73750000
    10  H          0.53200000       0.76320000       0.26250000
    11  C          0.61512000       0.56150180       0.63873130
    12  C          0.38488000       0.43849820       0.36126870
    13  H          0.71220000       0.62510000       0.59680000
    14  H          0.28780000       0.37490000       0.40320000
    15  C          0.40503000       0.62099180       0.69808130
    16  C          0.59497000       0.37900820       0.30191870
    17  H          0.33010000       0.73310000       0.70530000
    18  H          0.66990000       0.26690000       0.29470000
    19  C          0.10222000       0.48612000       0.82056130
    20  C          0.89778000       0.51388000       0.17943870
    21  H          0.05280000       0.38400000       0.80600000
    22  H          0.94720000       0.61600000       0.19400000
    23  H         -0.01210000       0.58030000       0.79010000
    24  H          0.01210000       0.41970000       0.20990000
    25  C          0.11602000       0.50002000       0.96362130
    26  C          0.88398000       0.49998000       0.03637870
    27  H          0.16250000       0.60290000       0.97920000
    28  H          0.83750000       0.39710000       0.02080000
    29  H          0.23040000       0.40630000      -0.00530000
    30  H          0.76960000       0.59370000       0.00530000
    31  O          0.80622000       0.86739850       0.82912110
    32  O          0.19378000       0.13260150       0.17087890
    33  O          0.89800180       0.10686130       0.86974100
    34  O          0.10199820       0.89313870       0.13025900
    35  C          0.77632000      -0.00691170       0.88939120
    36  C          0.22368000       0.00691170       0.11060880
    37  C          0.58752000       0.03653180      -0.00671880
    38  C          0.41248000       0.96346820       0.00671880
    39  H          0.59370000       0.11830000       0.05070000
    40  H          0.40630000       0.88170000       0.94930000
    41  H          0.01740000       0.07930000       0.79720000
    42  H          0.98260000       0.92070000       0.20280000
    43  O          0.21929160       0.04297130       0.69619900
    44  O          0.78070840       0.95702870       0.30380100
    45  O          0.03786180       0.20799140       0.54225100
    46  O          0.96213820       0.79200860       0.45774900
    47  C          0.20062000       0.09924160       0.58152120
    48  C          0.79938000       0.90075840       0.41847880
    49  C          0.39632000       0.03724160       0.48398120
    50  C          0.60368000       0.96275840       0.51601880
    51  H          0.37080000       0.05170000       0.39700000
    52  H          0.62920000       0.94830000       0.60300000
