data_PURXAE
_symmetry_space_group_name_H-M    'P1'
_symmetry_Int_Tables_number       1
loop_
_symmetry_equiv_pos_site_id
_symmetry_equiv_pos_as_xyz
1 x,y,z
_cell_length_a                   5.63632
_cell_length_b                   7.96263
_cell_length_c                   20.91517
_cell_angle_alpha                90.0
_cell_angle_beta                 94.79901
_cell_angle_gamma                90.0
loop_
_atom_site_label
_atom_site_type_symbol
_atom_site_fract_x
_atom_site_fract_y
_atom_site_fract_z
     1  F          0.77942000       0.14422140       0.09594500
     2  F          0.72058000       0.64422140       0.40405500
     3  F          0.22058000       0.85577860       0.90405500
     4  F          0.27942000       0.35577860       0.59594500
     5  F          0.43682000       0.95431850       0.12552500
     6  F          0.06318000       0.45431850       0.37447500
     7  F          0.56318000       0.04568150       0.87447500
     8  F          0.93682000       0.54568150       0.62552500
     9  O          0.89783000       0.25367170       0.90822400
    10  O          0.60217000       0.75367170       0.59177600
    11  O          0.10217000       0.74632830       0.09177600
    12  O          0.39783000       0.24632830       0.40822400
    13  H          0.02153200       0.31462700       0.90013500
    14  H          0.47846800       0.81462700       0.59986500
    15  H         -0.02153200       0.68537300       0.09986500
    16  H          0.52153200       0.18537300       0.40013500
    17  O          0.04902000       0.25572000       0.01016700
    18  O          0.45098000       0.75572000       0.48983300
    19  O          0.95098000       0.74428000       0.98983300
    20  O          0.54902000       0.24428000       0.51016700
    21  C          0.89813000       0.21462000       0.96850100
    22  C          0.60187000       0.71462000       0.53149900
    23  C          0.10187000       0.78538000       0.03149900
    24  C          0.39813000       0.28538000       0.46850100
    25  C          0.69073000       0.10662000       0.98356200
    26  C          0.80927000       0.60662000       0.51643800
    27  C          0.30927000       0.89338000       0.01643800
    28  C          0.19073000       0.39338000       0.48356200
    29  C          0.64533000       0.07452000       0.04686800
    30  C          0.85467000       0.57452000       0.45313200
    31  C          0.35467000       0.92548000       0.95313200
    32  C          0.14533000       0.42548000       0.54686800
    33  C          0.46243000       0.97218000       0.06282800
    34  C          0.03757000       0.47218000       0.43717200
    35  C          0.53757000       0.02782000       0.93717200
    36  C          0.96243000       0.52782000       0.56282800
    37  N          0.73013000       0.56942000       0.11625700
    38  N          0.76987000       0.06942000       0.38374300
    39  N          0.26987000       0.43058000       0.88374300
    40  N          0.23013000       0.93058000       0.61625700
    41  N          0.60833000       0.52672000       0.06261700
    42  N          0.89167000       0.02672000       0.43738300
    43  N          0.39167000       0.47328000       0.93738300
    44  N          0.10833000       0.97328000       0.56261700
    45  N          0.42153000       0.43582000       0.07704700
    46  N          0.07847000       0.93582000       0.42295300
    47  N          0.57847000       0.56418000       0.92295300
    48  N          0.92153000       0.06418000       0.57704700
    49  H          0.31336500       0.39590700       0.04821100
    50  H          0.18663500       0.89590700       0.45178900
    51  H          0.68663500       0.60409300       0.95178900
    52  H          0.81336500       0.10409300       0.54821100
    53  C          0.41743000       0.41752000       0.14164800
    54  C          0.08257000       0.91752000       0.35835200
    55  C          0.58257000       0.58248000       0.85835200
    56  C          0.91743000       0.08248000       0.64164800
    57  C          0.26213000       0.33562000       0.18019900
    58  C          0.23787000       0.83562000       0.31980100
    59  C          0.73787000       0.66438000       0.81980100
    60  C          0.76213000       0.16438000       0.68019900
    61  H          0.12507500       0.27709500       0.16251500
    62  H          0.37492500       0.77709500       0.33748500
    63  H          0.87492500       0.72290500       0.83748500
    64  H          0.62507500       0.22290500       0.66251500
    65  C          0.32023000       0.34532000       0.24520800
    66  C          0.17977000       0.84532000       0.25479200
    67  C          0.67977000       0.65468000       0.75479200
    68  C          0.82023000       0.15468000       0.74520800
    69  H          0.22045400       0.29145200       0.27338000
    70  H          0.27954600       0.79145200       0.22662000
    71  H          0.77954600       0.70854800       0.72662000
    72  H          0.72045400       0.20854800       0.77338000
    73  C          0.52393000       0.43292000       0.27152800
    74  C         -0.02393000       0.93292000       0.22847200
    75  C          0.47607000       0.56708000       0.72847200
    76  C          0.02393000       0.06708000       0.77152800
    77  H          0.55634900       0.43649900       0.31681300
    78  H          0.94365100       0.93649900       0.18318700
    79  H          0.44365100       0.56350100       0.68318700
    80  H          0.05634900       0.06350100       0.81681300
    81  C          0.67633000       0.51292000       0.23360800
    82  C          0.82367000       0.01292000       0.26639200
    83  C          0.32367000       0.48708000       0.76639200
    84  C          0.17633000      -0.01292000       0.73360800
    85  H          0.81337800       0.57099600       0.25144500
    86  H          0.68662200       0.07099600       0.24855500
    87  H          0.18662200       0.42900400       0.74855500
    88  H          0.31337800       0.92900400       0.75144500
    89  C          0.61873000       0.50432000       0.16707800
    90  C          0.88127000       0.00432000       0.33292200
    91  C          0.38127000       0.49568000       0.83292200
    92  C          0.11873000      -0.00432000       0.66707800
