data_PUSRIE
_symmetry_space_group_name_H-M    'P1'
_symmetry_Int_Tables_number       1
loop_
_symmetry_equiv_pos_site_id
_symmetry_equiv_pos_as_xyz
1 x,y,z
_cell_length_a                   5.27839
_cell_length_b                   14.5722
_cell_length_c                   13.9252
_cell_angle_alpha                90.0
_cell_angle_beta                 98.142
_cell_angle_gamma                90.0
loop_
_atom_site_label
_atom_site_type_symbol
_atom_site_fract_x
_atom_site_fract_y
_atom_site_fract_z
     1  I          0.39618900       0.49362300       0.40245300
     2  I          0.10381100      -0.00637700       0.09754700
     3  I          0.60381100       0.50637700       0.59754700
     4  I          0.89618900       0.00637700       0.90245300
     5  S          0.15303000       0.48021100       0.18692110
     6  S          0.34697000       0.98021100       0.31307890
     7  S          0.84697000       0.51978900       0.81307890
     8  S          0.65303000       0.01978900       0.68692110
     9  C          0.90628800       0.56774000       0.18294000
    10  C          0.59371200       0.06774000       0.31706000
    11  C          0.09371200       0.43226000       0.81706000
    12  C          0.40628800       0.93226000       0.68294000
    13  C          0.71678900       0.56154000       0.08914000
    14  C          0.78321100       0.06154000       0.41086000
    15  C          0.28321100       0.43846000       0.91086000
    16  C          0.21678900       0.93846000       0.58914000
    17  S          0.48457000       0.65228110       0.07429120
    18  S          0.01543000       0.15228110       0.42570880
    19  S          0.51543000       0.34771890       0.92570880
    20  S         -0.01543000       0.84771890       0.57429120
    21  C          0.68098700       0.75204000       0.05575000
    22  C          0.81901300       0.25204000       0.44425000
    23  C          0.31901300       0.24796000       0.94425000
    24  C          0.18098700       0.74796000       0.55575000
    25  C          0.83918800       0.74434000       0.97385000
    26  C          0.66081200       0.24434000       0.52615000
    27  C          0.16081200       0.25566000       0.02615000
    28  C          0.33918800       0.75566000       0.47385000
    29  S          0.63807000       0.72406110       0.85948880
    30  S          0.86193000       0.22406110       0.64051120
    31  S          0.36193000       0.27593890       0.14051120
    32  S          0.13807000       0.77593890       0.35948880
    33  C          0.87758700       0.70564000       0.78105000
    34  C          0.62241300       0.20564000       0.71895000
    35  C          0.12241300       0.29436000       0.21895000
    36  C          0.37758700       0.79436000       0.28105000
    37  C          0.95588800       0.37944000       0.19635000
    38  C          0.54411200       0.87944000       0.30365000
    39  C          0.04411200       0.62056000       0.80365000
    40  C          0.45588800       0.12056000       0.69635000
    41  H          0.81300000       0.56000000       0.23930000
    42  H          0.68700000       0.06000000       0.26070000
    43  H          0.18700000       0.44000000       0.76070000
    44  H          0.31300000       0.94000000       0.73930000
    45  H         -0.01290000       0.62910000       0.18750000
    46  H          0.51290000       0.12910000       0.31250000
    47  H          0.01290000       0.37090000       0.81250000
    48  H          0.48710000       0.87090000       0.68750000
    49  H          0.62570000       0.50200000       0.08800000
    50  H          0.87430000       0.00200000       0.41200000
    51  H          0.37430000       0.49800000       0.91200000
    52  H          0.12570000      -0.00200000       0.58800000
    53  H          0.81380000       0.56230000       0.03320000
    54  H          0.68620000       0.06230000       0.46680000
    55  H          0.18620000       0.43770000       0.96680000
    56  H          0.31380000       0.93770000       0.53320000
    57  H          0.56720000       0.80600000       0.04340000
    58  H          0.93280000       0.30600000       0.45660000
    59  H          0.43280000       0.19400000       0.95660000
    60  H          0.06720000       0.69400000       0.54340000
    61  H          0.79790000       0.76380000       0.11660000
    62  H          0.70210000       0.26380000       0.38340000
    63  H          0.20210000       0.23620000       0.88340000
    64  H          0.29790000       0.73620000       0.61660000
    65  H          0.93750000       0.80170000       0.96970000
    66  H          0.56250000       0.30170000       0.53030000
    67  H          0.06250000       0.19830000       0.03030000
    68  H          0.43750000       0.69830000       0.46970000
    69  H          0.96270000       0.69320000       0.98730000
    70  H          0.53730000       0.19320000       0.51270000
    71  H          0.03730000       0.30680000       0.01270000
    72  H          0.46270000       0.80680000       0.48730000
    73  H         -0.00950000       0.76020000       0.78490000
    74  H          0.50950000       0.26020000       0.71510000
    75  H          0.00950000       0.23980000       0.21510000
    76  H          0.49050000       0.73980000       0.28490000
    77  H          0.79070000       0.70100000       0.71350000
    78  H          0.70930000       0.20100000       0.78650000
    79  H          0.20930000       0.29900000       0.28650000
    80  H          0.29070000       0.79900000       0.21350000
    81  H          0.84840000       0.38880000       0.24820000
    82  H          0.65160000       0.88880000       0.25180000
    83  H          0.15160000       0.61120000       0.75180000
    84  H          0.34840000       0.11120000       0.74820000
    85  H          0.84090000       0.37020000       0.13440000
    86  H          0.65910000       0.87020000       0.36560000
    87  H          0.15910000       0.62980000       0.86560000
    88  H          0.34090000       0.12980000       0.63440000
