data_PUSRUQ
_symmetry_space_group_name_H-M    'P1'
_symmetry_Int_Tables_number       1
loop_
_symmetry_equiv_pos_site_id
_symmetry_equiv_pos_as_xyz
1 x,y,z
_cell_length_a                   9.5475
_cell_length_b                   8.5996
_cell_length_c                   16.36712
_cell_angle_alpha                90.0
_cell_angle_beta                 102.705
_cell_angle_gamma                90.0
loop_
_atom_site_label
_atom_site_type_symbol
_atom_site_fract_x
_atom_site_fract_y
_atom_site_fract_z
     1  I          0.14590400       0.02702500       0.02009300
     2  I          0.35409600       0.52702500       0.97990700
     3  I          0.85409600       0.97297500       0.97990700
     4  I          0.64590400       0.47297500       0.02009300
     5  S          0.51592000       0.92112000       0.90890100
     6  S         -0.01592000       0.42112000       0.09109900
     7  S          0.48408000       0.07888000       0.09109900
     8  S          0.01592000       0.57888000       0.90890100
     9  C          0.49496000       0.79977000       0.81574000
    10  C          0.00504000       0.29977000       0.18426000
    11  C          0.50504000       0.20023000       0.18426000
    12  C         -0.00504000       0.70023000       0.81574000
    13  C          0.63476000       0.75948000       0.79344000
    14  C          0.86524000       0.25948000       0.20656000
    15  C          0.36524000       0.24052000       0.20656000
    16  C          0.13476000       0.74052000       0.79344000
    17  S          0.60682000       0.65572000       0.69419100
    18  S          0.89318000       0.15572000       0.30580900
    19  S          0.39318000       0.34428000       0.30580900
    20  S          0.10682000       0.84428000       0.69419100
    21  C          0.65018000       0.80828000       0.62814000
    22  C          0.84982000       0.30828000       0.37186000
    23  C          0.34982000       0.19172000       0.37186000
    24  C          0.15018000       0.69172000       0.62814000
    25  C          0.60827000       0.75638000       0.53704000
    26  C          0.89173000       0.25638000       0.46296000
    27  C          0.39173000       0.24362000       0.46296000
    28  C          0.10827000       0.74362000       0.53704000
    29  S          0.65632000       0.90902000       0.47222110
    30  S          0.84368000       0.40902000       0.52777890
    31  S          0.34368000       0.09098000       0.52777890
    32  S          0.15632000       0.59098000       0.47222110
    33  C          0.70697000       0.80088000       0.38824000
    34  C          0.79303000       0.30088000       0.61176000
    35  C          0.29303000       0.19912000       0.61176000
    36  C          0.20697000       0.69912000       0.38824000
    37  C          0.58137000       0.72467000       0.32994000
    38  C          0.91863000       0.22467000       0.67006000
    39  C          0.41863000       0.27533000       0.67006000
    40  C          0.08137000       0.77533000       0.32994000
    41  S          0.62632000       0.64882000       0.23562100
    42  S          0.87368000       0.14882000       0.76437900
    43  S          0.37368000       0.35118000       0.76437900
    44  S          0.12632000       0.85118000       0.23562100
    45  C          0.63217000       0.82927000       0.17864000
    46  C          0.86783000       0.32927000       0.82136000
    47  C          0.36783000       0.17073000       0.82136000
    48  C          0.13217000       0.67073000       0.17864000
    49  C          0.51667000       0.11367000       0.86204000
    50  C         -0.01667000       0.61367000       0.13796000
    51  C          0.48333000       0.88633000       0.13796000
    52  C          0.01667000       0.38633000       0.86204000
    53  H          0.44520000       0.70240000       0.82500000
    54  H          0.05480000       0.20240000       0.17500000
    55  H          0.55480000       0.29760000       0.17500000
    56  H          0.94520000       0.79760000       0.82500000
    57  H          0.43330000       0.85480000       0.76790000
    58  H          0.06670000       0.35480000       0.23210000
    59  H          0.56670000       0.14520000       0.23210000
    60  H          0.93330000       0.64520000       0.76790000
    61  H          0.69240000       0.69400000       0.83820000
    62  H          0.80760000       0.19400000       0.16180000
    63  H          0.30760000       0.30600000       0.16180000
    64  H          0.19240000       0.80600000       0.83820000
    65  H          0.68930000       0.85600000       0.78950000
    66  H          0.81070000       0.35600000       0.21050000
    67  H          0.31070000       0.14400000       0.21050000
    68  H          0.18930000       0.64400000       0.78950000
    69  H          0.59750000       0.90430000       0.63590000
    70  H          0.90250000       0.40430000       0.36410000
    71  H          0.40250000       0.09570000       0.36410000
    72  H          0.09750000       0.59570000       0.63590000
    73  H          0.75430000       0.83070000       0.64350000
    74  H          0.74570000       0.33070000       0.35650000
    75  H          0.24570000       0.16930000       0.35650000
    76  H          0.25430000       0.66930000       0.64350000
    77  H          0.50360000       0.73640000       0.52110000
    78  H         -0.00360000       0.23640000       0.47890000
    79  H          0.49640000       0.26360000       0.47890000
    80  H          0.00360000       0.76360000       0.52110000
    81  H          0.65910000       0.65910000       0.52930000
    82  H          0.84090000       0.15910000       0.47070000
    83  H          0.34090000       0.34090000       0.47070000
    84  H          0.15910000       0.84090000       0.52930000
    85  H          0.75470000       0.87220000       0.35540000
    86  H          0.74530000       0.37220000       0.64460000
    87  H          0.24530000       0.12780000       0.64460000
    88  H          0.25470000       0.62780000       0.35540000
    89  H          0.77720000       0.71960000       0.41270000
    90  H          0.72280000       0.21960000       0.58730000
    91  H          0.22280000       0.28040000       0.58730000
    92  H          0.27720000       0.78040000       0.41270000
    93  H          0.50290000       0.80150000       0.31420000
    94  H         -0.00290000       0.30150000       0.68580000
    95  H          0.49710000       0.19850000       0.68580000
    96  H          0.00290000       0.69850000       0.31420000
    97  H          0.54550000       0.63840000       0.35990000
    98  H          0.95450000       0.13840000       0.64010000
    99  H          0.45450000       0.36160000       0.64010000
   100  H          0.04550000       0.86160000       0.35990000
   101  H          0.68210000       0.90960000       0.21770000
   102  H          0.81790000       0.40960000       0.78230000
   103  H          0.31790000       0.09040000       0.78230000
   104  H          0.18210000       0.59040000       0.21770000
   105  H          0.68770000       0.81260000       0.13490000
   106  H          0.81230000       0.31260000       0.86510000
   107  H          0.31230000       0.18740000       0.86510000
   108  H          0.18770000       0.68740000       0.13490000
   109  H          0.57510000       0.10970000       0.81900000
   110  H          0.92490000       0.60970000       0.18100000
   111  H          0.42490000       0.89030000       0.18100000
   112  H          0.07510000       0.39030000       0.81900000
   113  H          0.56250000       0.18840000       0.90570000
   114  H          0.93750000       0.68840000       0.09430000
   115  H          0.43750000       0.81160000       0.09430000
   116  H          0.06250000       0.31160000       0.90570000
