data_PUTFAL
_symmetry_space_group_name_H-M    'P1'
_symmetry_Int_Tables_number       1
loop_
_symmetry_equiv_pos_site_id
_symmetry_equiv_pos_as_xyz
1 x,y,z
_cell_length_a                   9.0662
_cell_length_b                   12.1033
_cell_length_c                   14.8593
_cell_angle_alpha                65.622
_cell_angle_beta                 90.402
_cell_angle_gamma                86.752
loop_
_atom_site_label
_atom_site_type_symbol
_atom_site_fract_x
_atom_site_fract_y
_atom_site_fract_z
     1  O          0.26598000       0.53432000       0.84071000
     2  O          0.73402000       0.46568000       0.15929000
     3  O          0.82008000       0.11602000       0.18022000
     4  O          0.17992000       0.88398000       0.81978000
     5  N          0.50928000       0.57222000       0.73562000
     6  N          0.49072000       0.42778000       0.26438000
     7  N          0.53238000       0.76302000       0.54221000
     8  N          0.46762000       0.23698000       0.45779000
     9  N          0.01533000       0.98542000       0.19382000
    10  N          0.98467000       0.01458000       0.80618000
    11  C          0.47007000       0.83012000       0.43862000
    12  C          0.52993000       0.16988000       0.56138000
    13  C          0.87197000       0.01122000       0.20622000
    14  C          0.12803000       0.98878000       0.79378000
    15  C          0.12527000       0.51363000       0.88412000
    16  C          0.87473000       0.48637000       0.11588000
    17  C          0.02797000       0.62503000       0.82233000
    18  C          0.97203000       0.37497000       0.17767000
    19  C          0.06697000       0.39913000       0.88603000
    20  C          0.93303000       0.60087000       0.11397000
    21  C          0.38917000       0.46342000       0.89062000
    22  C          0.61083000       0.53658000       0.10938000
    23  C          0.51797000       0.48582000       0.83492000
    24  C          0.48203000       0.51418000       0.16508000
    25  C          0.64567000       0.41483000       0.87942000
    26  C          0.35433000       0.58517000       0.12058000
    27  C          0.64887000       0.32533000       0.97442000
    28  C          0.35113000       0.67467000       0.02558000
    29  C          0.52307000       0.30543000       0.02782000
    30  C          0.47693000       0.69457000       0.97218000
    31  C          0.39367000       0.37603000       0.98582000
    32  C          0.60633000       0.62397000       0.01418000
    33  C          0.47747000       0.69952000       0.71892000
    34  C          0.52253000       0.30048000       0.28108000
    35  C          0.42237000       0.77212000       0.61442000
    36  C          0.57763000       0.22788000       0.38558000
    37  C          0.57658000       0.63322000       0.56572000
    38  C          0.42342000       0.36678000       0.43428000
    39  C          0.62758000       0.56572000       0.67172000
    40  C          0.37242000       0.43428000       0.32828000
    41  C          0.57357000       0.82592000       0.36142000
    42  C          0.42643000       0.17408000       0.63858000
    43  C          0.67647000       0.91212000       0.32282000
    44  C          0.32353000       0.08788000       0.67718000
    45  C          0.77217000       0.90982000       0.25092000
    46  C          0.22783000       0.09018000       0.74908000
    47  C          0.76167000       0.81943000       0.21712000
    48  C          0.23833000       0.18057000       0.78288000
    49  C          0.65876000       0.73393000       0.25433000
    50  C          0.34124000       0.26607000       0.74567000
    51  C          0.56477000       0.73653000       0.32642000
    52  C          0.43523000       0.26347000       0.67358000
    53  C          0.11074000       0.08413000       0.14063000
    54  C          0.88926000       0.91587000       0.85937000
    55  C          0.20424000       0.05383000       0.07073000
    56  C          0.79576000       0.94617000       0.92927000
    57  C          0.29204000       0.93374000       0.12233000
    58  C          0.70796000       0.06626000       0.87767000
    59  C          0.19024000       0.83433000       0.17904000
    60  C          0.80976000       0.16567000       0.82096000
    61  C          0.09744000       0.86883000       0.24713000
    62  C          0.90256000       0.13117000       0.75287000
    63  H          0.61377000       0.80532400       0.54741900
    64  H          0.38623000       0.19467600       0.45258100
    65  H          0.44470000       0.91310000       0.42690000
    66  H          0.55530000       0.08690000       0.57310000
    67  H          0.38080000       0.79420000       0.43280000
    68  H          0.61920000       0.20580000       0.56720000
    69  H          0.13350000       0.50740000       0.95040000
    70  H          0.86650000       0.49260000       0.04960000
    71  H          0.02650000       0.63720000       0.75420000
    72  H          0.97350000       0.36280000       0.24580000
    73  H          0.06840000       0.69350000       0.82820000
    74  H          0.93160000       0.30650000       0.17180000
    75  H          0.92910000       0.61700000       0.84580000
    76  H          0.07090000       0.38300000       0.15420000
    77  H          0.05530000       0.41680000       0.81700000
    78  H          0.94470000       0.58320000       0.18300000
    79  H          0.97390000       0.37910000       0.91710000
    80  H          0.02610000       0.62090000       0.08290000
    81  H          0.13820000       0.33150000       0.91670000
    82  H          0.86180000       0.66850000       0.08330000
    83  H          0.73510000       0.42890000       0.84320000
    84  H          0.26490000       0.57110000       0.15680000
    85  H          0.73870000       0.27600000       0.00200000
    86  H          0.26130000       0.72400000      -0.00200000
    87  H          0.52550000       0.24320000       0.09400000
    88  H          0.47450000       0.75680000       0.90600000
    89  H          0.30630000       0.36420000       0.02400000
    90  H          0.69370000       0.63580000       0.97600000
    91  H          0.56590000       0.73230000       0.73050000
    92  H          0.43410000       0.26770000       0.26950000
    93  H          0.40470000       0.70430000       0.76400000
    94  H          0.59530000       0.29570000       0.23600000
    95  H          0.33120000       0.74150000       0.60420000
    96  H          0.66880000       0.25850000       0.39580000
    97  H          0.40280000       0.85580000       0.60290000
    98  H          0.59720000       0.14420000       0.39710000
    99  H          0.65460000       0.62870000       0.52370000
   100  H          0.34540000       0.37130000       0.47630000
   101  H          0.49360000       0.59520000       0.55300000
   102  H          0.50640000       0.40480000       0.44700000
   103  H          0.65340000       0.48200000       0.68540000
   104  H          0.34660000       0.51800000       0.31460000
   105  H          0.71410000       0.60030000       0.68400000
   106  H          0.28590000       0.39970000       0.31600000
   107  H          0.68270000       0.97420000       0.34680000
   108  H          0.31730000       0.02580000       0.65320000
   109  H          0.82610000       0.81750000       0.16670000
   110  H          0.17390000       0.18250000       0.83330000
   111  H          0.65250000       0.67220000       0.22980000
   112  H          0.34750000       0.32780000       0.77020000
   113  H          0.49400000       0.67600000       0.35300000
   114  H          0.50600000       0.32400000       0.64700000
   115  H          0.17530000       0.09560000       0.18700000
   116  H          0.82470000       0.90440000       0.81300000
   117  H          0.05050000       0.15810000       0.10610000
   118  H          0.94950000       0.84190000       0.89390000
   119  H          0.26910000       0.11710000       0.03700000
   120  H          0.73090000       0.88290000       0.96300000
   121  H          0.13920000       0.04700000       0.02210000
   122  H          0.86080000       0.95300000       0.97790000
   123  H          0.36110000       0.94230000       0.16790000
   124  H          0.63890000       0.05770000       0.83210000
   125  H          0.34710000       0.91250000       0.07610000
   126  H          0.65290000       0.08750000       0.92390000
   127  H          0.24840000       0.75990000       0.21580000
   128  H          0.75160000       0.24010000       0.78420000
   129  H          0.12600000       0.82120000       0.13310000
   130  H          0.87400000       0.17880000       0.86690000
   131  H          0.02900000       0.80800000       0.27950000
   132  H          0.97100000       0.19200000       0.72050000
   133  H          0.16110000       0.87440000       0.29670000
   134  H          0.83890000       0.12560000       0.70330000
   135  O          0.12302000       0.72492000       0.50242000
   136  O          0.87698000       0.27508000       0.49758000
   137  O          0.24142000       0.59302000       0.45892000
   138  O          0.75858000       0.40698000       0.54108000
   139  C          0.12993000       0.62572000       0.48772000
   140  C          0.87007000       0.37428000       0.51228000
   141  C         -0.00863000       0.55853000       0.50613000
   142  C          0.00863000       0.44147000       0.49387000
   143  H          0.02064100       0.74803300       0.52212700
   144  H          0.97935900       0.25196700       0.47787300
   145  H          0.97226100       0.53933300       0.57252900
   146  H          0.02773900       0.46066700       0.42747100
   147  H          0.92115900       0.61363400       0.46642800
   148  H          0.07884100       0.38636600       0.53357200
   149  O          0.87668000       0.78562000       0.54552000
   150  O          0.12332000       0.21438000       0.45448000
   151  O          0.72408000       0.92262000       0.55912000
   152  O          0.27592000       0.07738000       0.44088000
   153  C          0.85147000       0.88412000       0.55322000
   154  C          0.14853000       0.11588000       0.44678000
   155  C          0.98027000       0.95962000       0.55262000
   156  C          0.01973000       0.04038000       0.44738000
   157  H          0.06843000       0.90482400       0.58811900
   158  H          0.93157000       0.09517600       0.41188100
   159  H          0.95287100       0.01352500       0.58822100
   160  H          0.04712900       0.98647500       0.41177900
