data_PUTLUN
_symmetry_space_group_name_H-M    'P1'
_symmetry_Int_Tables_number       1
loop_
_symmetry_equiv_pos_site_id
_symmetry_equiv_pos_as_xyz
1 x,y,z
_cell_length_a                   7.136915
_cell_length_b                   8.772517
_cell_length_c                   14.290613
_cell_angle_alpha                77.82013
_cell_angle_beta                 81.65913
_cell_angle_gamma                79.74317
loop_
_atom_site_label
_atom_site_type_symbol
_atom_site_fract_x
_atom_site_fract_y
_atom_site_fract_z
     1  C          0.66006000       0.33015000       0.61224000
     2  C          0.33994000       0.66985000       0.38776000
     3  H          0.63930000       0.42230000       0.56650000
     4  H          0.36070000       0.57770000       0.43350000
     5  C          0.65086000       0.33916000       0.70555000
     6  C          0.34914000       0.66084000       0.29445000
     7  H          0.62450000       0.43700000       0.72380000
     8  H          0.37550000       0.56300000       0.27620000
     9  C          0.68086000       0.20136000       0.77524000
    10  C          0.31914000       0.79864000       0.22476000
    11  H          0.67500000       0.20940000       0.83950000
    12  H          0.32500000       0.79060000       0.16050000
    13  C          0.71815000       0.05635000       0.75143000
    14  C          0.28185000       0.94365000       0.24857000
    15  H          0.73590000       0.96640000       0.79900000
    16  H          0.26410000       0.03360000       0.20100000
    17  C          0.81595000       0.72944000       0.51543000
    18  C          0.18405000       0.27056000       0.48457000
    19  H          0.83450000       0.64110000       0.56410000
    20  H          0.16550000       0.35890000       0.43590000
    21  C          0.82506000       0.71086000       0.42424000
    22  C          0.17494000       0.28914000       0.57576000
    23  H          0.84810000       0.60980000       0.41020000
    24  H          0.15190000       0.39020000       0.58980000
    25  C          0.79976000       0.84368000       0.34903000
    26  C          0.20024000       0.15632000       0.65097000
    27  H          0.80710000       0.82910000       0.28590000
    28  H          0.19290000       0.17090000       0.71410000
    29  C          0.76526000      -0.00934000       0.36773000
    30  C          0.23474000       0.00934000       0.63227000
    31  H          0.74990000       0.07670000       0.31730000
    32  H          0.25010000       0.92330000       0.68270000
    33  C          0.71425000       0.16464000       0.48733000
    34  C          0.28575000       0.83536000       0.51267000
    35  H          0.69760000       0.25390000       0.43920000
    36  H          0.30240000       0.74610000       0.56080000
    37  N          0.76814000       0.89763000       0.63112000
    38  N          0.23186000       0.10237000       0.36888000
    39  C          0.70115000       0.18094000       0.58193000
    40  C          0.29885000       0.81906000       0.41807000
    41  C          0.72994000       0.04244000       0.65332000
    42  C          0.27006000       0.95756000       0.34668000
    43  C          0.75184000       0.01584000       0.46302000
    44  C          0.24816000       0.98416000       0.53698000
    45  C          0.77814000       0.88254000       0.53892000
    46  C          0.22186000       0.11746000       0.46108000
    47  C          0.00725000       0.44164000       0.86073000
    48  C         -0.00725000       0.55836000       0.13927000
    49  C          0.85155000       0.41664000       0.92862000
    50  C          0.14845000       0.58336000       0.07138000
    51  H          0.73560000       0.48400000       0.92310000
    52  H          0.26440000       0.51600000       0.07690000
    53  C          0.87005000       0.28994000       0.00502000
    54  C          0.12995000       0.71006000      -0.00502000
    55  C          0.03976000       0.18864000       0.01523000
    56  C          0.96024000       0.81136000       0.98477000
    57  H          0.04980000       0.10290000       0.06610000
    58  H          0.95020000       0.89710000       0.93390000
    59  C          0.19517000       0.21765000       0.94764000
    60  C          0.80483000       0.78235000       0.05236000
    61  H          0.31200000       0.15200000       0.95400000
    62  H          0.68800000       0.84800000       0.04600000
    63  C          0.17936000       0.34175000       0.87113000
    64  C          0.82064000       0.65825000       0.12887000
    65  H          0.28500000       0.35870000       0.82600000
    66  H          0.71500000       0.64130000       0.17400000
    67  C         -0.00874000       0.57224000       0.77483000
    68  C          0.00874000       0.42776000       0.22517000
    69  O          0.82284000       0.66183000       0.77512000
    70  O          0.17716000       0.33817000       0.22488000
    71  H          0.80770000       0.74540000       0.71820000
    72  H          0.19230000       0.25460000       0.28180000
    73  O          0.11874000       0.58944000       0.71052000
    74  O          0.88126000       0.41056000       0.28948000
    75  I          0.62964400       0.25088400       0.10473119
    76  I          0.37035600       0.74911600       0.89526881
