data_PUTWUY
_symmetry_space_group_name_H-M    'P1'
_symmetry_Int_Tables_number       1
loop_
_symmetry_equiv_pos_site_id
_symmetry_equiv_pos_as_xyz
1 x,y,z
_cell_length_a                   4.62038
_cell_length_b                   5.959111
_cell_length_c                   13.4342
_cell_angle_alpha                82.4997
_cell_angle_beta                 84.0107
_cell_angle_gamma                83.8197
loop_
_atom_site_label
_atom_site_type_symbol
_atom_site_fract_x
_atom_site_fract_y
_atom_site_fract_z
     1  N          0.92804820       0.12047140       0.12905600
     2  N          0.07195180       0.87952860       0.87094400
     3  O          0.02485180       0.96877870       0.19295600
     4  O          0.97514820       0.03122130       0.80704400
     5  O          0.74328830       0.09576140       0.07312600
     6  O          0.25671170       0.90423860       0.92687400
     7  N          0.03137190       0.32126140       0.12340600
     8  N          0.96862810       0.67873860       0.87659400
     9  H          0.16230000       0.33520000       0.16831100
    10  H          0.83770000       0.66480000       0.83168900
    11  C          0.92708000       0.50893160       0.05316700
    12  C          0.07292000       0.49106840       0.94683300
    13  H          0.96810000       0.65350000       0.07530000
    14  H          0.03190000       0.34650000       0.92470000
    15  H          0.71270000       0.51090000       0.05260000
    16  H          0.28730000       0.48910000       0.94740000
    17  N          0.41260170       0.38210140       0.26848600
    18  N          0.58739830       0.61789860       0.73151400
    19  C          0.52772000       0.57568160       0.27518700
    20  C          0.47228000       0.42431840       0.72481300
    21  H          0.47960000       0.70470000       0.22830000
    22  H          0.52040000       0.29530000       0.77170000
    23  C          0.71322000       0.59670160       0.34713700
    24  C          0.28678000       0.40329840       0.65286300
    25  H          0.79120000       0.73670000       0.34980000
    26  H          0.20880000       0.26330000       0.65020000
    27  C          0.78225190       0.40769150       0.41514600
    28  C          0.21774810       0.59230850       0.58485400
    29  N          0.97001170       0.40354130       0.49352600
    30  N          0.02998830       0.59645870       0.50647400
    31  C          0.67062000       0.20511160       0.40797700
    32  C          0.32938000       0.79488840       0.59202300
    33  H          0.72010000       0.07240000       0.45250000
    34  H          0.27990000       0.92760000       0.54750000
    35  C          0.48432000       0.20107160       0.33383700
    36  C          0.51568000       0.79892840       0.66616300
    37  H          0.40390000       0.06290000       0.32940000
    38  H          0.59610000       0.93710000       0.67060000
