data_PUVMOI
_symmetry_space_group_name_H-M    'P1'
_symmetry_Int_Tables_number       1
loop_
_symmetry_equiv_pos_site_id
_symmetry_equiv_pos_as_xyz
1 x,y,z
_cell_length_a                   8.46807
_cell_length_b                   11.03889
_cell_length_c                   21.743017
_cell_angle_alpha                90.0
_cell_angle_beta                 97.8976
_cell_angle_gamma                90.0
loop_
_atom_site_label
_atom_site_type_symbol
_atom_site_fract_x
_atom_site_fract_y
_atom_site_fract_z
     1  S          0.95962500       0.35221500       0.23098200
     2  S          0.04037500       0.85221500       0.26901800
     3  S          0.04037500       0.64778500       0.76901800
     4  S          0.95962500       0.14778500       0.73098200
     5  O          0.94262840       0.47729120       0.21325700
     6  O          0.05737160       0.97729120       0.28674300
     7  O          0.05737160       0.52270880       0.78674300
     8  O          0.94262840       0.02270880       0.71325700
     9  O          0.06168150       0.27626140       0.19961700
    10  O          0.93831850       0.77626140       0.30038300
    11  O          0.93831850       0.72373860       0.80038300
    12  O          0.06168150       0.22373860       0.69961700
    13  O          0.16787190       0.34716150       0.49954600
    14  O          0.83212810       0.84716150       0.00045400
    15  O          0.83212810       0.65283850       0.50045400
    16  O          0.16787190       0.15283850      -0.00045400
    17  O          0.32168840       0.13752140       0.18834900
    18  O          0.67831160       0.63752140       0.31165100
    19  O          0.67831160       0.86247860       0.81165100
    20  O          0.32168840       0.36247860       0.68834900
    21  C          0.02702000       0.34734160       0.31104800
    22  C          0.97298000       0.84734160       0.18895200
    23  C          0.97298000       0.65265840       0.68895200
    24  C          0.02702000       0.15265840       0.81104800
    25  C          0.96948000       0.43265170       0.34866900
    26  C          0.03052000       0.93265170       0.15133100
    27  C          0.03052000       0.56734830       0.65133100
    28  C          0.96948000       0.06734830       0.84866900
    29  C          0.01702000       0.43114180       0.41166900
    30  C         -0.01702000       0.93114180       0.08833100
    31  C         -0.01702000       0.56885820       0.58833100
    32  C          0.01702000       0.06885820       0.91166900
    33  C          0.12452000       0.34388180       0.43730900
    34  C          0.87548000       0.84388180       0.06269100
    35  C          0.87548000       0.65611820       0.56269100
    36  C          0.12452000       0.15611820       0.93730900
    37  C          0.18052000       0.25740180       0.39963900
    38  C          0.81948000       0.75740180       0.10036100
    39  C          0.81948000       0.74259820       0.60036100
    40  C          0.18052000       0.24259820       0.89963900
    41  C          0.13182000       0.25856170       0.33651900
    42  C          0.86818000       0.75856170       0.16348100
    43  C          0.86818000       0.74143830       0.66348100
    44  C          0.13182000       0.24143830       0.83651900
    45  C          0.76908000       0.28658160       0.22079800
    46  C          0.23092000       0.78658160       0.27920200
    47  C          0.23092000       0.71341840       0.77920200
    48  C          0.76908000       0.21341840       0.72079800
    49  C          0.63878000       0.35800170       0.22819800
    50  C          0.36122000       0.85800170       0.27180200
    51  C          0.36122000       0.64199830       0.77180200
    52  C          0.63878000       0.14199830       0.72819800
    53  C          0.48818000       0.30885170       0.21845900
    54  C          0.51182000       0.80885170       0.28154100
    55  C          0.51182000       0.69114830       0.78154100
    56  C          0.48818000       0.19114830       0.71845900
    57  C          0.46768000       0.18994180       0.20037100
    58  C          0.53232000       0.68994180       0.29962900
    59  C          0.53232000       0.81005820       0.79962900
    60  C          0.46768000       0.31005820       0.70037100
    61  C          0.59838000       0.11850180       0.19331110
    62  C          0.40162000       0.61850180       0.30668890
    63  C          0.40162000       0.88149820       0.80668890
    64  C          0.59838000       0.38149820       0.69331110
    65  C          0.74918000       0.16659180       0.20384100
    66  C          0.25082000       0.66659180       0.29615900
    67  C          0.25082000       0.83340820       0.79615900
    68  C          0.74918000       0.33340820       0.70384100
    69  H          0.24510000       0.30290000       0.50900000
    70  H          0.75490000       0.80290000       0.99100000
    71  H          0.75490000       0.69710000       0.49100000
    72  H          0.24510000       0.19710000       0.00900000
    73  H          0.25260000       0.18850000       0.19120000
    74  H          0.74740000       0.68850000       0.30880000
    75  H          0.74740000       0.81150000       0.80880000
    76  H          0.25260000       0.31150000       0.69120000
    77  H          0.89830000       0.49140000       0.33130000
    78  H          0.10170000      -0.00860000       0.16870000
    79  H          0.10170000       0.50860000       0.66870000
    80  H          0.89830000       0.00860000       0.83130000
    81  H          0.97740000       0.48830000       0.43700000
    82  H          0.02260000      -0.01170000       0.06300000
    83  H          0.02260000       0.51170000       0.56300000
    84  H          0.97740000       0.01170000       0.93700000
    85  H          0.25140000       0.19830000       0.41700000
    86  H          0.74860000       0.69830000       0.08300000
    87  H          0.74860000       0.80170000       0.58300000
    88  H          0.25140000       0.30170000       0.91700000
    89  H          0.16890000       0.20020000       0.31120000
    90  H          0.83110000       0.70020000       0.18880000
    91  H          0.83110000       0.79980000       0.68880000
    92  H          0.16890000       0.29980000       0.81120000
    93  H          0.65300000       0.43880000       0.23970000
    94  H          0.34700000       0.93880000       0.26030000
    95  H          0.34700000       0.56120000       0.76030000
    96  H          0.65300000       0.06120000       0.73970000
    97  H          0.40030000       0.35600000       0.22410000
    98  H          0.59970000       0.85600000       0.27590000
    99  H          0.59970000       0.64400000       0.77590000
   100  H          0.40030000       0.14400000       0.72410000
   101  H          0.58400000       0.03790000       0.18140000
   102  H          0.41600000       0.53790000       0.31860000
   103  H          0.41600000       0.96210000       0.81860000
   104  H          0.58400000       0.46210000       0.68140000
   105  H          0.83730000       0.11860000       0.19960000
   106  H          0.16270000       0.61860000       0.30040000
   107  H          0.16270000       0.88140000       0.80040000
   108  H          0.83730000       0.38140000       0.69960000
   109  N          0.45942000       0.24302160       0.52954800
   110  N          0.54058000       0.74302160       0.97045200
   111  N          0.54058000       0.75697840       0.47045200
   112  N          0.45942000       0.25697840       0.02954800
   113  C          0.53152000       0.14497180       0.55667800
   114  C          0.46848000       0.64497180       0.94332200
   115  C          0.46848000       0.85502820       0.44332200
   116  C          0.53152000       0.35502820       0.05667800
   117  C          0.69553000       0.13352000       0.56421100
   118  C          0.30447000       0.63352000       0.93578900
   119  C          0.30447000       0.86648000       0.43578900
   120  C          0.69553000       0.36648000       0.06421100
   121  C          0.78653000       0.22473000       0.54392130
   122  C          0.21347000       0.72473000       0.95607870
   123  C          0.21347000       0.77527000       0.45607870
   124  C          0.78653000       0.27527000       0.04392130
   125  C          0.71304000       0.32413000       0.51580130
   126  C          0.28696000       0.82413000       0.98419870
   127  C          0.28696000       0.67587000       0.48419870
   128  C          0.71304000       0.17587000       0.01580130
   129  C          0.55083000       0.32892000       0.50920120
   130  C          0.44917000       0.82892000       0.99079880
   131  C          0.44917000       0.67108000       0.49079880
   132  C          0.55083000       0.17108000       0.00920120
   133  N          0.50342000       0.94869830       0.59937900
   134  N          0.49658000       0.44869830       0.90062100
   135  N          0.49658000       0.05130170       0.40062100
   136  N          0.50342000       0.55130170       0.09937900
   137  C          0.42882000       0.05035180       0.57864800
   138  C          0.57118000       0.55035180       0.92135200
   139  C          0.57118000       0.94964820       0.42135200
   140  C          0.42882000       0.44964820       0.07864800
   141  C          0.26803000       0.06702000       0.57967120
   142  C          0.73197000       0.56702000       0.92032880
   143  C          0.73197000       0.93298000       0.42032880
   144  C          0.26803000       0.43298000       0.07967120
   145  C          0.18123000       0.97517000       0.60247130
   146  C          0.81877000       0.47517000       0.89752870
   147  C          0.81877000       0.02483000       0.39752870
   148  C          0.18123000       0.52483000       0.10247130
   149  C          0.25694000       0.87207000       0.62351120
   150  C          0.74306000       0.37207000       0.87648880
   151  C          0.74306000       0.12793000       0.37648880
   152  C          0.25694000       0.62793000       0.12351120
   153  C          0.41484000       0.86298000       0.62130120
   154  C          0.58516000       0.36298000       0.87869880
   155  C          0.58516000       0.13702000       0.37869880
   156  C          0.41484000       0.63702000       0.12130120
   157  H          0.74410000       0.06470000       0.58290000
   158  H          0.25590000       0.56470000       0.91710000
   159  H          0.25590000       0.93530000       0.41710000
   160  H          0.74410000       0.43530000       0.08290000
   161  H          0.89710000       0.21850000       0.54930000
   162  H          0.10290000       0.71850000       0.95070000
   163  H          0.10290000       0.78150000       0.45070000
   164  H          0.89710000       0.28150000       0.04930000
   165  H          0.77180000       0.38670000       0.50160000
   166  H          0.22820000       0.88670000      -0.00160000
   167  H          0.22820000       0.61330000       0.49840000
   168  H          0.77180000       0.11330000       0.00160000
   169  H          0.50060000       0.39600000       0.48930000
   170  H          0.49940000       0.89600000       0.01070000
   171  H          0.49940000       0.60400000       0.51070000
   172  H          0.50060000       0.10400000       0.98930000
   173  H          0.21860000       0.13880000       0.56530000
   174  H          0.78140000       0.63880000       0.93470000
   175  H          0.78140000       0.86120000       0.43470000
   176  H          0.21860000       0.36120000       0.06530000
   177  H          0.07230000       0.98410000       0.60330000
   178  H          0.92770000       0.48410000       0.89670000
   179  H          0.92770000       0.01590000       0.39670000
   180  H          0.07230000       0.51590000       0.10330000
   181  H          0.20120000       0.80910000       0.63910000
   182  H          0.79880000       0.30910000       0.86090000
   183  H          0.79880000       0.19090000       0.36090000
   184  H          0.20120000       0.69090000       0.13910000
   185  H          0.46560000       0.79200000       0.63610000
   186  H          0.53440000       0.29200000       0.86390000
   187  H          0.53440000       0.20800000       0.36390000
   188  H          0.46560000       0.70800000       0.13610000
