data_PUYPUV
_symmetry_space_group_name_H-M    'P1'
_symmetry_Int_Tables_number       1
loop_
_symmetry_equiv_pos_site_id
_symmetry_equiv_pos_as_xyz
1 x,y,z
_cell_length_a                   14.19732
_cell_length_b                   13.65852
_cell_length_c                   14.78353
_cell_angle_alpha                90.0
_cell_angle_beta                 111.93801
_cell_angle_gamma                90.0
loop_
_atom_site_label
_atom_site_type_symbol
_atom_site_fract_x
_atom_site_fract_y
_atom_site_fract_z
     1  Cl         0.19224400       0.53450400       0.62268400
     2  Cl         0.30775600       0.03450400       0.87731600
     3  Cl         0.80775600       0.46549600       0.37731600
     4  Cl         0.69224400       0.96549600       0.12268400
     5  Cl         0.20439600       0.54526400       0.83787500
     6  Cl         0.29560400       0.04526400       0.66212500
     7  Cl         0.79560400       0.45473600       0.16212500
     8  Cl         0.70439600       0.95473600       0.33787500
     9  Cl        -0.00944500       0.55802500       0.66266600
    10  Cl         0.50944500       0.05802500       0.83733400
    11  Cl         0.00944500       0.44197500       0.33733400
    12  Cl         0.49055500       0.94197500       0.16266600
    13  Cl         0.94511600       0.12629400       0.51936400
    14  Cl         0.55488400       0.62629400       0.98063600
    15  Cl         0.05488400       0.87370600       0.48063600
    16  Cl         0.44511600       0.37370600       0.01936400
    17  Cl         0.11686400       0.26862500       0.64249500
    18  Cl         0.38313600       0.76862500       0.85750500
    19  Cl         0.88313600       0.73137500       0.35750500
    20  Cl         0.61686400       0.23137500       0.14249500
    21  Cl         0.89054600       0.32974300       0.58792400
    22  Cl         0.60945400       0.82974300       0.91207600
    23  Cl         0.10945400       0.67025700       0.41207600
    24  Cl         0.39054600       0.17025700       0.08792400
    25  Cl         0.79504600       0.70365400       0.11036400
    26  Cl         0.70495400       0.20365400       0.38963600
    27  Cl         0.20495400       0.29634600       0.88963600
    28  Cl         0.29504600       0.79634600       0.61036400
    29  Cl        -0.00387400       0.62221400       0.09768400
    30  Cl         0.50387400       0.12221400       0.40231600
    31  Cl         0.00387400       0.37778600       0.90231600
    32  Cl         0.49612600       0.87778600       0.59768400
    33  Cl         0.79452600       0.61603400       0.91282400
    34  Cl         0.70547400       0.11603400       0.58717600
    35  Cl         0.20547400       0.38396600       0.08717600
    36  Cl         0.29452600       0.88396600       0.41282400
    37  P          0.13387500       0.60235400       0.70640500
    38  P          0.36612500       0.10235400       0.79359500
    39  P          0.86612500       0.39764600       0.29359500
    40  P          0.63387500       0.89764600       0.20640500
    41  P          0.98253600       0.21659400       0.63203400
    42  P          0.51746400       0.71659400       0.86796600
    43  P          0.01746400       0.78340600       0.36796600
    44  P          0.48253600       0.28340600       0.13203400
    45  P          0.87302600       0.69968400       0.02588400
    46  P          0.62697400       0.19968400       0.47411600
    47  P          0.12697400       0.30031600       0.97411600
    48  P          0.37302600       0.80031600       0.52588400
    49  N          0.11150120       0.87465110       0.71943130
    50  N          0.38849880       0.37465110       0.78056870
    51  N          0.88849880       0.12534890       0.28056870
    52  N          0.61150120       0.62534890       0.21943130
    53  N          0.05327120       0.03024110       0.72987130
    54  N          0.44672880       0.53024110       0.77012870
    55  N          0.94672880       0.96975890       0.27012870
    56  N          0.55327120       0.46975890       0.22987130
    57  N          0.95407870       0.06024110       0.82883130
    58  N          0.54592130       0.56024110       0.67116870
    59  N          0.04592130       0.93975890       0.17116870
    60  N          0.45407870       0.43975890       0.32883130
    61  N          0.92827870       0.93247120       0.91978130
    62  N          0.57172130       0.43247120       0.58021870
    63  N          0.07172130       0.06752880       0.08021870
    64  N          0.42827870       0.56752880       0.41978130
    65  H          0.88678200       0.97231700       0.94081800
    66  H          0.61321800       0.47231700       0.55918200
    67  H          0.11321800       0.02768300       0.05918200
    68  H          0.38678200       0.52768300       0.44081800
    69  N          0.98281870       0.77086110       0.90741130
    70  N          0.51718130       0.27086110       0.59258870
    71  N          0.01718130       0.22913890       0.09258870
    72  N          0.48281870       0.72913890       0.40741130
    73  N          0.06908130       0.74251110       0.80573130
    74  N          0.43091870       0.24251110       0.69426870
    75  N          0.93091870       0.25748890       0.19426870
    76  N          0.56908130       0.75748890       0.30573130
    77  N          0.01551120       0.90197110       0.81757120
    78  N          0.48448880       0.40197110       0.68242880
    79  N          0.98448880       0.09802890       0.18242880
    80  N          0.51551120       0.59802890       0.31757120
    81  N          0.14764130       0.71503110       0.69567130
    82  N          0.35235870       0.21503110       0.80432870
    83  N          0.85235870       0.28496890       0.30432870
    84  N          0.64764130       0.78496890       0.19567130
    85  N          0.97168870       0.17898120       0.72705130
    86  N          0.52831130       0.67898120       0.77294870
    87  N          0.02831130       0.82101880       0.27294870
    88  N          0.47168870       0.32101880       0.22705130
    89  N          0.88735870       0.80852110       0.00167130
    90  N          0.61264130       0.30852110       0.49832870
    91  N          0.11264130       0.19147890      -0.00167130
    92  N          0.38735870       0.69147890       0.50167130
    93  C          0.10826140       0.77956140       0.74187150
    94  C          0.39173860       0.27956140       0.75812850
    95  C          0.89173860       0.22043860       0.25812850
    96  C          0.60826140       0.72043860       0.24187150
    97  C          0.06243140       0.93607130       0.75550150
    98  C          0.43756860       0.43607130       0.74449850
    99  C          0.93756860       0.06392870       0.24449850
   100  C          0.56243140       0.56392870       0.25550150
   101  C         -0.00455150       0.08662140       0.76243150
   102  C          0.50455150       0.58662140       0.73756850
   103  C          0.00455150       0.91337860       0.23756850
   104  C          0.49544850       0.41337860       0.26243150
   105  C          0.96667860       0.96835130       0.85532150
   106  C          0.53332140       0.46835130       0.64467850
   107  C          0.03332140       0.03164870       0.14467850
   108  C          0.46667860       0.53164870       0.35532150
   109  C          0.93480860       0.83522140       0.94198150
   110  C          0.56519140       0.33522140       0.55801850
   111  C          0.06519140       0.16477860       0.05801850
   112  C          0.43480860       0.66477860       0.44198150
   113  C          0.02368150       0.80342130       0.84455150
   114  C          0.47631850       0.30342130       0.65544850
   115  C          0.97631850       0.19657870       0.15544850
   116  C          0.52368150       0.69657870       0.34455150
   117  Cl         0.23970400       0.64444500       0.23717400
   118  Cl         0.26029600       0.14444500       0.26282600
   119  Cl         0.76029600       0.35555500       0.76282600
   120  Cl         0.73970400       0.85555500       0.73717400
   121  Cl         0.35295400       0.63149500       0.07753500
   122  Cl         0.14704600       0.13149500       0.42246500
   123  Cl         0.64704600       0.36850500       0.92246500
   124  Cl         0.85295400       0.86850500       0.57753500
   125  C          0.23701180       0.73923170       0.15213180
   126  C          0.26298820       0.23923170       0.34786820
   127  C          0.76298820       0.26076830       0.84786820
   128  C          0.73701180       0.76076830       0.65213180
   129  H          0.17520000       0.77950000       0.13820000
   130  H          0.32480000       0.27950000       0.36180000
   131  H          0.82480000       0.22050000       0.86180000
   132  H          0.67520000       0.72050000       0.63820000
   133  H          0.29680000       0.78240000       0.18150000
   134  H          0.20320000       0.28240000       0.31850000
   135  H          0.70320000       0.21760000       0.81850000
   136  H          0.79680000       0.71760000       0.68150000
   137  C          0.23775170       0.69721170       0.05891170
   138  C          0.26224830       0.19721170       0.44108830
   139  C          0.76224830       0.30278830       0.94108830
   140  C          0.73775170       0.80278830       0.55891170
   141  H          0.23020000       0.75080000       0.01170000
   142  H          0.26980000       0.25080000       0.48830000
   143  H          0.76980000       0.24920000       0.98830000
   144  H          0.73020000       0.74920000       0.51170000
   145  H          0.17920000       0.65250000       0.03080000
   146  H          0.32080000       0.15250000       0.46920000
   147  H          0.82080000       0.34750000       0.96920000
   148  H          0.67920000       0.84750000       0.53080000
   149  Cl         0.78948400       0.05286400       0.98557400
   150  Cl         0.71051600       0.55286400       0.51442600
   151  Cl         0.21051600       0.94713600       0.01442600
   152  Cl         0.28948400       0.44713600       0.48557400
