data_PUZHIE
_symmetry_space_group_name_H-M    'P1'
_symmetry_Int_Tables_number       1
loop_
_symmetry_equiv_pos_site_id
_symmetry_equiv_pos_as_xyz
1 x,y,z
_cell_length_a                   9.17407
_cell_length_b                   14.01781
_cell_length_c                   17.560513
_cell_angle_alpha                100.06501
_cell_angle_beta                 95.28501
_cell_angle_gamma                107.22501
loop_
_atom_site_label
_atom_site_type_symbol
_atom_site_fract_x
_atom_site_fract_y
_atom_site_fract_z
     1  I          0.01383200       0.28785200       0.05480200
     2  I         -0.01383200       0.71214800       0.94519800
     3  F          0.70148830       0.16750120       0.93977200
     4  F          0.29851170       0.83249880       0.06022800
     5  I          0.34100800       0.05764200       0.92706800
     6  I          0.65899200       0.94235800       0.07293200
     7  F          0.33024840       0.13500120       0.11002900
     8  F          0.66975160       0.86499880       0.88997100
     9  F          0.55321830       0.24057120       0.23158800
    10  F          0.44678170       0.75942880       0.76841200
    11  F          0.85130830       0.30235110       0.21104800
    12  F          0.14869170       0.69764890       0.78895200
    13  C          0.78327000       0.23794180       0.07389140
    14  C          0.21673000       0.76205820       0.92610860
    15  C          0.66487000       0.18531180       0.01254140
    16  C          0.33513000       0.81468820       0.98745860
    17  C          0.51087000       0.14794180       0.02118140
    18  C          0.48913000       0.85205820       0.97881860
    19  C          0.47717000       0.16846190       0.09641150
    20  C          0.52283000       0.83153810       0.90358850
    21  C          0.59027000       0.22148190       0.15931140
    22  C          0.40973000       0.77851810       0.84068860
    23  C          0.74267000       0.25419180       0.14763140
    24  C          0.25733000       0.74580820       0.85236860
    25  N          0.32432000       0.34365150       0.01771120
    26  N          0.67568000       0.65634850       0.98228880
    27  C          0.34773000       0.31927180       0.94389860
    28  C          0.65227000       0.68072820       0.05610140
    29  H          0.26114400       0.28186800       0.90489700
    30  H          0.73885600       0.71813200       0.09510300
    31  N          0.59672000       0.42626160       0.05520120
    32  N          0.40328000       0.57373840       0.94479880
    33  C          0.49323000       0.34632190       0.92185850
    34  C          0.50677000       0.65367810       0.07814150
    35  H          0.50807200       0.32841700       0.86909200
    36  H          0.49192800       0.67158300       0.13090800
    37  N          0.34712000       0.59644170       0.52730120
    38  N          0.65288000       0.40355830       0.47269880
    39  C          0.61553000       0.40069190       0.98065850
    40  C          0.38447000       0.59930810       0.01934150
    41  H          0.71684900       0.42062800       0.96757800
    42  H          0.28315100       0.57937200       0.03242200
    43  C          0.45083000       0.39684180       0.07058140
    44  C          0.54917000       0.60315820       0.92941860
    45  C          0.42703000       0.42633190       0.14981140
    46  C          0.57297000       0.57366810       0.85018860
    47  C          0.40483000       0.45375190       0.21490150
    48  C          0.59517000       0.54624810       0.78509850
    49  C          0.38723000       0.48979190       0.29340140
    50  C          0.61277000       0.51020810       0.70659860
    51  C          0.24533000       0.45855190       0.32093150
    52  C          0.75467000       0.54144810       0.67906850
    53  H          0.15688000       0.41335600       0.28610100
    54  H          0.84312000       0.58664400       0.71389900
    55  C          0.23263000       0.49255190       0.39781150
    56  C          0.76737000       0.50744810       0.60218850
    57  H          0.13573200       0.46941700       0.41519300
    58  H          0.86426800       0.53058300       0.58480700
    59  C          0.36073000       0.56111180       0.45137140
    60  C          0.63927000       0.43888820       0.54862860
    61  C          0.50243000       0.59344190       0.42259140
    62  C          0.49757000       0.40655810       0.57740860
    63  H          0.59046200       0.64047300       0.45662600
    64  H          0.40953800       0.35952700       0.54337400
    65  C          0.51463000       0.55782190       0.34612150
    66  C          0.48537000       0.44217810       0.65387850
    67  H          0.61157700       0.57983600       0.32862200
    68  H          0.38842300       0.42016400       0.67137800
    69  C          0.21223000       0.54662000       0.56038160
    70  C          0.78777000       0.45338000       0.43961840
    71  H          0.12253300       0.56265200       0.53816300
    72  H          0.87746700       0.43734800       0.46183700
    73  H          0.23147100       0.57112100       0.61731700
    74  H          0.76852900       0.42887900       0.38268300
    75  H          0.19168000       0.47245600       0.54792200
    76  H          0.80832000       0.52754400       0.45207800
    77  C          0.47663000       0.67242000       0.57970160
    78  C          0.52337000       0.32758000       0.42029840
    79  H          0.55572700       0.64130200       0.59269700
    80  H          0.44427300       0.35869800       0.40730300
    81  H          0.44143400       0.69836000       0.62772700
    82  H          0.55856600       0.30164000       0.37227300
    83  H          0.52034200       0.72896500       0.55412000
    84  H          0.47965800       0.27103500       0.44588000
    85  I          0.85764200       0.54755200       0.17666200
    86  I          0.14235800       0.45244800       0.82333800
    87  I          0.12375200       0.78072200       0.51038200
    88  I          0.87624800       0.21927800       0.48961800
    89  F          0.88976150       0.65121110       0.35745800
    90  F          0.11023850       0.34878890       0.64254200
    91  F          0.42714160       0.81466110       0.42497900
    92  F          0.57285840       0.18533890       0.57502100
    93  F          0.46342160       0.75035130       0.27629900
    94  F          0.53657840       0.24964870       0.72370100
    95  F          0.21991170       0.63395130       0.16906900
    96  F          0.78008830       0.36604870       0.83093100
    97  C          0.04723000       0.63818180       0.26077140
    98  C          0.95277000       0.36181820       0.73922860
    99  C          0.03333000       0.67444180       0.33750140
   100  C          0.96667000       0.32555820       0.66249860
   101  C          0.15573000       0.73286180       0.39466140
   102  C          0.84427000       0.26713820       0.60533860
   103  C          0.30133000       0.75763190       0.37278150
   104  C          0.69867000       0.24236810       0.62721850
   105  C          0.32153000       0.72432000       0.29693150
   106  C          0.67847000       0.27568000       0.70306850
   107  C          0.19583000       0.66498190       0.24240150
   108  C          0.80417000       0.33501810       0.75759850
   109  N          0.04352000       0.83658160       0.66195120
   110  N          0.95648000       0.16341840       0.33804880
   111  N          0.10872000       0.92578160       0.79570120
   112  N          0.89128000       0.07421840       0.20429880
   113  N          0.06722000       0.09674170       0.67626130
   114  N          0.93278000       0.90325830       0.32373870
   115  C          0.89603000       0.80064190       0.67321150
   116  C          0.10397000       0.19935810       0.32678850
   117  H          0.82130000       0.75730500       0.63039800
   118  H          0.17870000       0.24269500       0.36960200
   119  C          0.84893000       0.82401190       0.74399150
   120  C          0.15107000       0.17598810       0.25600850
   121  H          0.74430500       0.79726500       0.75116000
   122  H          0.25569500       0.20273500       0.24884000
   123  C          0.96113000       0.88851190       0.80456150
   124  C          0.03887000       0.11148810       0.19543850
   125  H          0.93189100       0.90684800       0.85416900
   126  H          0.06810900       0.09315200       0.14583100
   127  C          0.14373000       0.89742180       0.72425140
   128  C          0.85627000       0.10257820       0.27574860
   129  C          0.30253000       0.93454190       0.71349150
   130  C          0.69747000       0.06545810       0.28650850
   131  C          0.43433000       0.96259190       0.70317150
   132  C          0.56567000       0.03740810       0.29682850
   133  C          0.59413000      -0.00339820       0.69455150
   134  C          0.40587000       0.00339820       0.30544850
   135  C          0.70463000       0.05532190       0.75934150
   136  C          0.29537000       0.94467810       0.24065850
   137  H          0.67219000       0.07197600       0.80839200
   138  H          0.32781000       0.92802400       0.19160800
   139  C          0.85963000       0.08942190       0.75311150
   140  C          0.14037000       0.91057810       0.24688850
   141  H          0.93182800       0.12974800       0.79784300
   142  H          0.06817200       0.87025200       0.20215700
   143  C          0.91263000       0.06565180       0.68200140
   144  C          0.08737000       0.93434820       0.31799860
   145  C          0.80023000       0.00715180       0.61632140
   146  C          0.19977000      -0.00715180       0.38367860
   147  H          0.83182800      -0.00954200       0.56709000
   148  H          0.16817200       0.00954200       0.43291000
   149  C          0.64583000       0.97431180       0.62308140
   150  C          0.35417000       0.02568820       0.37691860
   151  H          0.57267500       0.93564000       0.57821000
   152  H          0.42732500       0.06436000       0.42179000
   153  C          0.17823000       0.16232000       0.74254170
   154  C          0.82177000       0.83768000       0.25745830
   155  H          0.16027000       0.22840800       0.75472700
   156  H          0.83973000       0.77159200       0.24527300
   157  H          0.28291000       0.17257400       0.72989500
   158  H          0.71709000       0.82742600       0.27010500
   159  H          0.16686000       0.13022000       0.78792000
   160  H          0.83314000       0.86978000       0.21208000
   161  C          0.12213000       0.07372000       0.60229150
   162  C          0.87787000       0.92628000       0.39770850
   163  H          0.08375700      -0.00028400       0.58136300
   164  H          0.91624300       0.00028400       0.41863700
   165  H          0.23529000       0.09714300       0.61073500
   166  H          0.76471000       0.90285700       0.38926500
   167  H          0.08434700       0.10858400       0.56495700
   168  H          0.91565300       0.89141600       0.43504300
