data_PUZJAY
_symmetry_space_group_name_H-M    'P1'
_symmetry_Int_Tables_number       1
loop_
_symmetry_equiv_pos_site_id
_symmetry_equiv_pos_as_xyz
1 x,y,z
_cell_length_a                   9.019118
_cell_length_b                   26.8055
_cell_length_c                   9.566419
_cell_angle_alpha                90.0
_cell_angle_beta                 112.0523
_cell_angle_gamma                90.0
loop_
_atom_site_label
_atom_site_type_symbol
_atom_site_fract_x
_atom_site_fract_y
_atom_site_fract_z
     1  I          0.42385700       0.75016200       0.88434700
     2  I          0.57614300       0.25016200       0.61565300
     3  I          0.57614300       0.24983800       0.11565300
     4  I          0.42385700       0.74983800       0.38434700
     5  F          0.70996000       0.77369180       0.76527000
     6  F          0.29004000       0.27369180       0.73473000
     7  F          0.29004000       0.22630820       0.23473000
     8  F          0.70996000       0.72630820       0.26527000
     9  I          0.69015700       0.97266200       0.67044700
    10  I          0.30984300       0.47266200       0.82955300
    11  I          0.30984300       0.02733800       0.32955300
    12  I          0.69015700       0.52733800       0.17044700
    13  F          0.80577000       0.85762000       0.67887000
    14  F          0.19423000       0.35762000       0.82113000
    15  F          0.19423000       0.14238000       0.32113000
    16  F          0.80577000       0.64238000       0.17887000
    17  F          0.43047000       0.94852000       0.81447000
    18  F          0.56953000       0.44852000       0.68553000
    19  F          0.56953000       0.05148000       0.18553000
    20  F          0.43047000       0.55148000       0.31447000
    21  F          0.32847000       0.86452000       0.89357000
    22  F          0.67153000       0.36452000       0.60643000
    23  F          0.67153000       0.13548000       0.10643000
    24  F          0.32847000       0.63548000       0.39357000
    25  C          0.51381100       0.81613000       0.82881100
    26  C          0.48618900       0.31613000       0.67118900
    27  C          0.48618900       0.18387000       0.17118900
    28  C          0.51381100       0.68387000       0.32881100
    29  C          0.63611100       0.81683000       0.77491000
    30  C          0.36388900       0.31683000       0.72509000
    31  C          0.36388900       0.18317000       0.22509000
    32  C          0.63611100       0.68317000       0.27491000
    33  C          0.68831000       0.86043000       0.73321000
    34  C          0.31169000       0.36043000       0.76679000
    35  C          0.31169000       0.13957000       0.26679000
    36  C          0.68831000       0.63957000       0.23321000
    37  C          0.62111100       0.90603000       0.74171100
    38  C          0.37888900       0.40603000       0.75828900
    39  C          0.37888900       0.09397000       0.25828900
    40  C          0.62111100       0.59397000       0.24171100
    41  C          0.50221200       0.90563000       0.80001100
    42  C          0.49778800       0.40563000       0.69998900
    43  C          0.49778800       0.09437000       0.19998900
    44  C          0.50221200       0.59437000       0.30001100
    45  C          0.44841100       0.86203000       0.84131000
    46  C          0.55158900       0.36203000       0.65869000
    47  C          0.55158900       0.13797000       0.15869000
    48  C          0.44841100       0.63797000       0.34131000
    49  N          0.26309000       0.65853000       0.94761000
    50  N          0.73691000       0.15853000       0.55239000
    51  N          0.73691000       0.34147000       0.05239000
    52  N          0.26309000       0.84147000       0.44761000
    53  C          0.15391200       0.66034000       0.00981200
    54  C          0.84608800       0.16034000       0.49018800
    55  C          0.84608800       0.33966000      -0.00981200
    56  C          0.15391200       0.83966000       0.50981200
    57  H          0.12568900       0.69195600       0.03725900
    58  H          0.87431100       0.19195600       0.46274100
    59  H          0.87431100       0.30804400       0.96274100
    60  H          0.12568900       0.80804400       0.53725900
    61  N          0.22951000       0.56953000       0.93081000
    62  N          0.77049000       0.06953000       0.56919000
    63  N          0.77049000       0.43047000       0.06919000
    64  N          0.22951000       0.93047000       0.43081000
    65  C          0.07911200       0.61824000       0.03661200
    66  C          0.92088800       0.11824000       0.46338800
    67  C          0.92088800       0.38176000       0.96338800
    68  C          0.07911200       0.88176000       0.53661200
    69  H          0.00210900       0.62041600       0.08212500
    70  H         -0.00210900       0.12041600       0.41787500
    71  H         -0.00210900       0.37958400       0.91787500
    72  H          0.00210900       0.87958400       0.58212500
    73  N          0.01201000       0.62283000       0.56991100
    74  N         -0.01201000       0.12283000       0.93008900
    75  N         -0.01201000       0.37717000       0.43008900
    76  N          0.01201000       0.87717000       0.06991100
    77  C          0.12171200       0.57304000      -0.00588800
    78  C          0.87828800       0.07304000       0.50588800
    79  C          0.87828800       0.42696000       0.00588800
    80  C          0.12171200       0.92696000       0.49411200
    81  H          0.07242700       0.54345200       0.01050000
    82  H          0.92757300       0.04345200       0.48950000
    83  H          0.92757300       0.45654800      -0.01050000
    84  H          0.07242700       0.95654800       0.51050000
    85  C          0.29831100       0.61233000       0.91131100
    86  C          0.70168900       0.11233000       0.58868900
    87  C          0.70168900       0.38767000       0.08868900
    88  C          0.29831100       0.88767000       0.41131100
    89  C          0.41761100       0.60973000       0.84691000
    90  C          0.58238900       0.10973000       0.65309000
    91  C          0.58238900       0.39027000       0.15309000
    92  C          0.41761100       0.89027000       0.34691000
    93  C          0.52121100       0.60813000       0.79751100
    94  C          0.47878900       0.10813000       0.70248900
    95  C          0.47878900       0.39187000       0.20248900
    96  C          0.52121100       0.89187000       0.29751100
    97  C          0.64561000       0.61043000       0.73971000
    98  C          0.35439000       0.11043000       0.76029000
    99  C          0.35439000       0.38957000       0.26029000
   100  C          0.64561000       0.88957000       0.23971000
   101  C          0.70681100       0.56783000       0.69411100
   102  C          0.29318900       0.06783000       0.80588900
   103  C          0.29318900       0.43217000       0.30588900
   104  C          0.70681100       0.93217000       0.19411100
   105  H          0.66417300       0.53593800       0.70126500
   106  H          0.33582700       0.03593800       0.79873500
   107  H          0.33582700       0.46406200       0.29873500
   108  H          0.66417300       0.96406200       0.20126500
   109  C          0.82761100       0.57163000       0.63921200
   110  C          0.17238900       0.07163000       0.86078800
   111  C          0.17238900       0.42837000       0.36078800
   112  C          0.82761100       0.92837000       0.13921200
   113  H          0.86792000       0.54210700       0.61106000
   114  H          0.13208000       0.04210700       0.88894000
   115  H          0.13208000       0.45789300       0.38894000
   116  H          0.86792000       0.95789300       0.11106000
   117  C          0.89291100       0.61853000       0.62391100
   118  C          0.10708900       0.11853000       0.87608900
   119  C          0.10708900       0.38147000       0.37608900
   120  C          0.89291100       0.88147000       0.12391100
   121  C          0.82821100       0.66133000       0.66721100
   122  C          0.17178900       0.16133000       0.83278900
   123  C          0.17178900       0.33867000       0.33278900
   124  C          0.82821100       0.83867000       0.16721100
   125  H          0.86765900       0.69342300       0.65704600
   126  H          0.13234100       0.19342300       0.84295400
   127  H          0.13234100       0.30657700       0.34295400
   128  H          0.86765900       0.80657700       0.15704600
   129  C          0.70921100       0.65713000       0.72351100
   130  C          0.29078900       0.15713000       0.77648900
   131  C          0.29078900       0.34287000       0.27648900
   132  C          0.70921100       0.84287000       0.22351100
   133  H          0.66881800       0.68641800       0.75236500
   134  H          0.33118200       0.18641800       0.74763500
   135  H          0.33118200       0.31358200       0.24763500
   136  H          0.66881800       0.81358200       0.25236500
   137  C          0.07781200       0.57924000       0.52241200
   138  C          0.92218800       0.07924000       0.97758800
   139  C          0.92218800       0.42076000       0.47758800
   140  C          0.07781200       0.92076000       0.02241200
   141  H          0.11916400       0.55570500       0.60660800
   142  H          0.88083600       0.05570500       0.89339200
   143  H          0.88083600       0.44429500       0.39339200
   144  H          0.11916400       0.94429500       0.10660800
   145  H          0.16484300       0.58968700       0.49115200
   146  H          0.83515700       0.08968700       0.00884800
   147  H          0.83515700       0.41031300       0.50884800
   148  H          0.16484300       0.91031300      -0.00884800
   149  H         -0.00633500       0.56307000       0.43755400
   150  H          0.00633500       0.06307000       0.06244600
   151  H          0.00633500       0.43693000       0.56244600
   152  H         -0.00633500       0.93693000       0.93755400
   153  C          0.07421200       0.67154000       0.55141300
   154  C          0.92578800       0.17154000       0.94858700
   155  C          0.92578800       0.32846000       0.44858700
   156  C          0.07421200       0.82846000       0.05141300
   157  H         -0.01075600       0.69083400       0.47625000
   158  H          0.01075600       0.19083400       0.02375000
   159  H          0.01075600       0.30916600       0.52375000
   160  H         -0.01075600       0.80916600       0.97625000
   161  H          0.16331800       0.66706800       0.51753800
   162  H          0.83668200       0.16706800       0.98246200
   163  H          0.83668200       0.33293200       0.48246200
   164  H          0.16331800       0.83293200       0.01753800
   165  H          0.11186500       0.68920400       0.64804100
   166  H          0.88813500       0.18920400       0.85195900
   167  H          0.88813500       0.31079600       0.35195900
   168  H          0.11186500       0.81079600       0.14804100
