data_PUZXIR
_symmetry_space_group_name_H-M    'P1'
_symmetry_Int_Tables_number       1
loop_
_symmetry_equiv_pos_site_id
_symmetry_equiv_pos_as_xyz
1 x,y,z
_cell_length_a                   8.3142
_cell_length_b                   9.0683
_cell_length_c                   9.9153
_cell_angle_alpha                112.172
_cell_angle_beta                 97.072
_cell_angle_gamma                100.082
loop_
_atom_site_label
_atom_site_type_symbol
_atom_site_fract_x
_atom_site_fract_y
_atom_site_fract_z
     1  S          0.36592100       0.35351100       0.56174900
     2  S          0.63407900       0.64648900       0.43825100
     3  S          0.37587110       0.11765100       0.43374100
     4  S          0.62412890       0.88234900       0.56625900
     5  N          0.27104000       0.10263000       0.27843000
     6  N          0.72896000       0.89737000       0.72157000
     7  C          0.21654000       0.22834000       0.28114000
     8  C          0.78346000       0.77166000       0.71886000
     9  Cl         0.10838150       0.21499120       0.11750100
    10  Cl         0.89161850       0.78500880       0.88249900
    11  C          0.24854000       0.37314000       0.41783000
    12  C          0.75146000       0.62686000       0.58217000
    13  C          0.19854000       0.51874000       0.44273000
    14  C          0.80146000       0.48126000       0.55727000
    15  N          0.10313000       0.54903000       0.33593000
    16  N          0.89687000       0.45097000       0.66407000
    17  C          0.08174000       0.69554000       0.39334000
    18  C          0.91826000       0.30446000       0.60666000
    19  S          0.16799120       0.81741110       0.57967100
    20  S          0.83200880       0.18258890       0.42032900
    21  C          0.24964000       0.65104000       0.58744000
    22  C          0.75036000       0.34896000       0.41256000
    23  O          0.33683000       0.65403000       0.69713000
    24  O          0.66317000       0.34597000       0.30287000
    25  C         -0.01025000       0.76045000       0.30584000
    26  C          0.01025000       0.23955000       0.69416000
    27  N          0.91635000       0.81345000       0.23874000
    28  N          0.08365000       0.18655000       0.76126000
    29  S          0.55507140       0.30713130       0.86775100
    30  S          0.44492860       0.69286870       0.13224900
    31  O          0.56254000       0.21123000       0.70953000
    32  O          0.43746000       0.78877000       0.29047000
    33  C          0.76186000       0.36557000       0.97055000
    34  C          0.23814000       0.63443000       0.02945000
    35  H          0.82756000       0.44777000       0.94745000
    36  H          0.17244000       0.55223000       0.05255000
    37  H          0.80886000       0.27157000       0.94485000
    38  H          0.19114000       0.72843000       0.05515000
    39  H          0.76166000       0.40927000       0.07505000
    40  H          0.23834000       0.59073000       0.92495000
    41  C          0.47426000       0.16117000       0.93535000
    42  C          0.52574000       0.83883000       0.06465000
    43  H          0.35806000       0.11407000       0.89015000
    44  H          0.64194000       0.88593000       0.10985000
    45  H          0.48686000       0.21387000       0.04145000
    46  H          0.51314000       0.78613000       0.95855000
    47  H          0.53406000       0.07617000       0.91135000
    48  H          0.46594000       0.92383000       0.08865000
