data_PYOTCA10
_symmetry_space_group_name_H-M    'P1'
_symmetry_Int_Tables_number       1
loop_
_symmetry_equiv_pos_site_id
_symmetry_equiv_pos_as_xyz
1 x,y,z
_cell_length_a                   11.7452
_cell_length_b                   9.1203
_cell_length_c                   10.6094
_cell_angle_alpha                90.0
_cell_angle_beta                 108.853
_cell_angle_gamma                90.0
loop_
_atom_site_label
_atom_site_type_symbol
_atom_site_fract_x
_atom_site_fract_y
_atom_site_fract_z
     1  Cl         0.14920000       0.66860000       0.18620000
     2  Cl         0.85080000       0.16860000       0.31380000
     3  Cl         0.85080000       0.33140000       0.81380000
     4  Cl         0.14920000       0.83140000       0.68620000
     5  Cl         0.05580000       0.37990000       0.18320000
     6  Cl         0.94420000       0.87990000       0.31680000
     7  Cl         0.94420000       0.62010000       0.81680000
     8  Cl         0.05580000       0.12010000       0.68320000
     9  Cl         0.11470000       0.55540000       0.42030000
    10  Cl         0.88530000       0.05540000       0.07970000
    11  Cl         0.88530000       0.44460000       0.57970000
    12  Cl         0.11470000       0.94460000       0.92030000
    13  C          0.15650000       0.50700000       0.28140000
    14  C          0.84350000       0.00700000       0.21860000
    15  C          0.84350000       0.49300000       0.71860000
    16  C          0.15650000      -0.00700000       0.78140000
    17  C          0.28600000       0.44250000       0.32150000
    18  C          0.71400000       0.94250000       0.17850000
    19  C          0.71400000       0.55750000       0.67850000
    20  C          0.28600000       0.05750000       0.82150000
    21  O          0.31790000       0.41630000       0.22280000
    22  O          0.68210000       0.91630000       0.27720000
    23  O          0.68210000       0.58370000       0.77720000
    24  O          0.31790000       0.08370000       0.72280000
    25  O          0.33990000       0.41730000       0.43570000
    26  O          0.66010000       0.91730000       0.06430000
    27  O          0.66010000       0.58270000       0.56430000
    28  O          0.33990000       0.08270000       0.93570000
    29  C          0.57340000       0.32240000       0.07850000
    30  C          0.42660000       0.82240000       0.42150000
    31  C          0.42660000       0.67760000       0.92150000
    32  C          0.57340000       0.17760000       0.57850000
    33  C          0.64600000       0.39520000       0.02450000
    34  C          0.35400000       0.89520000       0.47550000
    35  C          0.35400000       0.60480000       0.97550000
    36  C          0.64600000       0.10480000       0.52450000
    37  C          0.71760000       0.50910000       0.09070000
    38  C          0.28240000       0.00910000       0.40930000
    39  C          0.28240000       0.49090000       0.90930000
    40  C          0.71760000      -0.00910000       0.59070000
    41  C          0.71350000       0.54400000       0.21630000
    42  C          0.28650000       0.04400000       0.28370000
    43  C          0.28650000       0.45600000       0.78370000
    44  C          0.71350000       0.95600000       0.71630000
    45  C          0.63860000       0.46730000       0.26920000
    46  C          0.36140000       0.96730000       0.23080000
    47  C          0.36140000       0.53270000       0.73080000
    48  C          0.63860000       0.03270000       0.76920000
    49  H          0.51500000       0.26500000       0.04200000
    50  H          0.48500000       0.76500000       0.45800000
    51  H          0.48500000       0.73500000       0.95800000
    52  H          0.51500000       0.23500000       0.54200000
    53  H          0.65700000       0.36000000       0.93400000
    54  H          0.34300000       0.86000000       0.56600000
    55  H          0.34300000       0.64000000       0.06600000
    56  H          0.65700000       0.14000000       0.43400000
    57  H          0.77400000       0.55800000       0.03700000
    58  H          0.22600000       0.05800000       0.46300000
    59  H          0.22600000       0.44200000       0.96300000
    60  H          0.77400000       0.94200000       0.53700000
    61  H          0.76100000       0.63100000       0.26900000
    62  H          0.23900000       0.13100000       0.23100000
    63  H          0.23900000       0.36900000       0.73100000
    64  H          0.76100000       0.86900000       0.76900000
    65  H          0.62300000       0.47900000       0.35300000
    66  H          0.37700000       0.97900000       0.14700000
    67  H          0.37700000       0.52100000       0.64700000
    68  H          0.62300000       0.02100000       0.85300000
    69  N          0.57210000       0.35900000       0.19830000
    70  N          0.42790000       0.85900000       0.30170000
    71  N          0.42790000       0.64100000       0.80170000
    72  N          0.57210000       0.14100000       0.69830000
    73  O          0.50040000       0.27880000       0.25320000
    74  O          0.49960000       0.77880000       0.24680000
    75  O          0.49960000       0.72120000       0.74680000
    76  O          0.50040000       0.22120000       0.75320000
