data_PYPTCQ01
_symmetry_space_group_name_H-M    'P1'
_symmetry_Int_Tables_number       1
loop_
_symmetry_equiv_pos_site_id
_symmetry_equiv_pos_as_xyz
1 x,y,z
_cell_length_a                   7.75994
_cell_length_b                   25.340912
_cell_length_c                   13.08856
_cell_angle_alpha                90.0
_cell_angle_beta                 92.780213
_cell_angle_gamma                90.0
loop_
_atom_site_label
_atom_site_type_symbol
_atom_site_fract_x
_atom_site_fract_y
_atom_site_fract_z
     1  N          0.06866190       0.20746700       0.58955110
     2  N          0.93133810       0.70746700       0.41044890
     3  N          0.27856190       0.39240700       0.61851110
     4  N          0.72143810       0.89240700       0.38148890
     5  C          0.20723000       0.17643900       0.57766150
     6  C          0.79277000       0.67643900       0.42233850
     7  C          0.19374000       0.13222100       0.51882190
     8  C          0.80626000       0.63222100       0.48117810
     9  C          0.03544000       0.11898110       0.47312000
    10  C          0.96456000       0.61898110       0.52688000
    11  C          0.89626000       0.15114110       0.48648180
    12  C          0.10374000       0.65114110       0.51351820
    13  C          0.91427000       0.19512100       0.54458160
    14  C          0.08573000       0.69512100       0.45541840
    15  C          0.08613000       0.25587900       0.65277140
    16  C          0.91387000       0.75587900       0.34722860
    17  C          0.18533000       0.29879800       0.59926130
    18  C          0.81467000       0.79879800       0.40073870
    19  C          0.18123000       0.34871900       0.66329150
    20  C          0.81877000       0.84871900       0.33670850
    21  C          0.19663000       0.42783900       0.55726160
    22  C          0.80337000       0.92783900       0.44273840
    23  C          0.28334000       0.46910100       0.51792000
    24  C          0.71666000       0.96910100       0.48208000
    25  C          0.45654000       0.47417110       0.53993000
    26  C          0.54346000       0.97417110       0.46007000
    27  C          0.53963000       0.43690110       0.60063000
    28  C          0.46037000       0.93690110       0.39937000
    29  C          0.44973000       0.39655100       0.63912170
    30  C          0.55027000       0.89655100       0.36087830
    31  H          0.31270000       0.18530000       0.60990000
    32  H          0.68730000       0.68530000       0.39010000
    33  H          0.28980000       0.11120000       0.50950000
    34  H          0.71020000       0.61120000       0.49050000
    35  H          0.02340000       0.08860000       0.43360000
    36  H          0.97660000       0.58860000       0.56640000
    37  H          0.78940000       0.14270000       0.45560000
    38  H          0.21060000       0.64270000       0.54440000
    39  H          0.81970000       0.21690000       0.55350000
    40  H          0.18030000       0.71690000       0.44650000
    41  H          0.14570000       0.24740000       0.71750000
    42  H          0.85430000       0.74740000       0.28250000
    43  H          0.97220000       0.26890000       0.66700000
    44  H          0.02780000       0.76890000       0.33300000
    45  H          0.30370000       0.28770000       0.59180000
    46  H          0.69630000       0.78770000       0.40820000
    47  H          0.13280000       0.30530000       0.53170000
    48  H          0.86720000       0.80530000       0.46830000
    49  H          0.06230000       0.35950000       0.66950000
    50  H          0.93770000       0.85950000       0.33050000
    51  H          0.22980000       0.34120000       0.73140000
    52  H          0.77020000       0.84120000       0.26860000
    53  H          0.07900000       0.42410000       0.54160000
    54  H          0.92100000       0.92410000       0.45840000
    55  H          0.22530000       0.49370000       0.47630000
    56  H          0.77470000       0.99370000       0.52370000
    57  H          0.51720000       0.50250000       0.51420000
    58  H          0.48280000       0.00250000       0.48580000
    59  H          0.65790000       0.43950000       0.61510000
    60  H          0.34210000       0.93950000       0.38490000
    61  H          0.50640000       0.37140000       0.68020000
    62  H          0.49360000       0.87140000       0.31980000
    63  N          0.09143000       0.11551800       0.15669150
    64  N          0.90857000       0.61551800       0.84330850
    65  N          0.58453000       0.09560900       0.32610140
    66  N          0.41547000       0.59560900       0.67389860
    67  N          0.08603000       0.10665900       0.77118850
    68  N          0.91397000       0.60665900       0.22881150
    69  N          0.57953000       0.09522100       0.61148860
    70  N          0.42047000       0.59522100       0.38851140
    71  C          0.23823000       0.11183800       0.15497140
    72  C          0.76177000       0.61183800       0.84502860
    73  C          0.42193000       0.10753700       0.15227140
    74  C          0.57807000       0.60753700       0.84772860
    75  C          0.51293000       0.10090800       0.24889150
    76  C          0.48707000       0.60090800       0.75110850
    77  C          0.50553000       0.10853600       0.06074130
    78  C          0.49447000       0.60853600       0.93925870
    79  C          0.68923000       0.10624700       0.05912130
    80  C          0.31077000       0.60624700       0.94087870
    81  C          0.77013000       0.10663700       0.96983870
    82  C          0.22987000       0.60663700       0.03016130
    83  C          0.67403000       0.10781700       0.87345870
    84  C          0.32597000       0.60781700       0.12654130
    85  C          0.48993000       0.11070700       0.87514860
    86  C          0.51007000       0.61070700       0.12485140
    87  C          0.40863000       0.11187700       0.96420870
    88  C          0.59137000       0.61187700       0.03579130
    89  C          0.93863000       0.10539800       0.77555860
    90  C          0.06137000       0.60539800       0.22444140
    91  C          0.75553000       0.10527700       0.78064870
    92  C          0.24447000       0.60527700       0.21935130
    93  C          0.65833000       0.10047900       0.68625850
    94  C          0.34167000       0.60047900       0.31374150
    95  H          0.75440000       0.10450000       0.12050000
    96  H          0.24560000       0.60450000       0.87950000
    97  H          0.89000000       0.10610000       0.97100000
    98  H          0.11000000       0.60610000       0.02900000
    99  H          0.42480000       0.11180000       0.81360000
   100  H          0.57520000       0.61180000       0.18640000
   101  H          0.28910000       0.11490000       0.96310000
   102  H          0.71090000       0.61490000       0.03690000
   103  N          0.02693000       0.23742800       0.31465150
   104  N          0.97307000       0.73742800       0.68534850
   105  N          0.53323000       0.22879900       0.47124120
   106  N          0.46677000       0.72879900       0.52875880
   107  N          0.00653000       0.22703800       0.91130860
   108  N         -0.00653000       0.72703800       0.08869140
   109  N          0.50203000       0.24245100       0.75300860
   110  N          0.49797000       0.74245100       0.24699140
   111  C          0.17373000       0.23414800       0.30802140
   112  C          0.82627000       0.73414800       0.69197860
   113  C          0.35612000       0.23058700       0.30047130
   114  C          0.64388000       0.73058700       0.69952870
   115  C          0.45403000       0.22882800       0.39485140
   116  C          0.54597000       0.72882800       0.60514860
   117  C          0.43482000       0.23043700       0.20698120
   118  C          0.56518000       0.73043700       0.79301880
   119  C          0.61872000       0.22611700       0.20242120
   120  C          0.38128000       0.72611700       0.79757880
   121  C          0.69582000       0.22659700       0.11224120
   122  C          0.30418000       0.72659700       0.88775880
   123  C          0.59802000       0.23194700       0.01727120
   124  C          0.40198000       0.73194700       0.98272880
   125  C          0.41422000       0.23615700       0.02186130
   126  C          0.58578000       0.73615700       0.97813870
   127  C          0.33732000       0.23547700       0.11225130
   128  C          0.66268000       0.73547700       0.88774870
   129  C          0.85973000       0.22942800       0.91729860
   130  C          0.14027000       0.72942800       0.08270140
   131  C          0.67703000       0.23278700       0.92328870
   132  C          0.32297000       0.73278700       0.07671130
   133  C          0.58013000       0.23836800       0.82889860
   134  C          0.41987000       0.73836800       0.17110140
   135  H          0.68600000       0.22290000       0.26280000
   136  H          0.31400000       0.72290000       0.73720000
   137  H          0.81520000       0.22340000       0.11180000
   138  H          0.18480000       0.72340000       0.88820000
   139  H          0.34680000       0.23940000       0.96150000
   140  H          0.65320000       0.73940000       0.03850000
   141  H          0.21790000       0.23840000       0.11270000
   142  H          0.78210000       0.73840000       0.88730000
   143  N          0.29283000       0.35896800       0.36042130
   144  N          0.70717000       0.85896800       0.63957870
   145  N          0.80613000       0.34234900       0.51317130
   146  N          0.19387000       0.84234900       0.48682870
   147  N          0.26873000       0.35657800       0.95349850
   148  N          0.73127000       0.85657800       0.04650150
   149  N          0.77233000       0.36219900       0.79420870
   150  N          0.22767000       0.86219900       0.20579130
   151  C          0.44013000       0.35715800       0.35417130
   152  C          0.55987000       0.85715800       0.64582870
   153  C          0.62203000       0.35419700       0.34609130
   154  C          0.37797000       0.85419700       0.65390870
   155  C          0.72343000       0.34752800       0.43873140
   156  C          0.27657000       0.84752800       0.56126860
   157  C          0.69942000       0.35659700       0.25133120
   158  C          0.30058000       0.85659700       0.74866880
   159  C          0.88332000       0.35452700       0.24675130
   160  C          0.11668000       0.85452700       0.75324870
   161  C          0.95942000       0.35550700       0.15588130
   162  C          0.04058000       0.85550700       0.84411870
   163  C          0.85992000       0.35891700       0.06141120
   164  C          0.14008000       0.85891700       0.93858880
   165  C          0.67592000       0.36127700       0.06628130
   166  C          0.32408000       0.86127700       0.93371870
   167  C          0.59982000       0.36035700       0.15701120
   168  C          0.40018000       0.86035700       0.84298880
   169  C          0.12263000       0.35776800       0.96126860
   170  C          0.87737000       0.85776800       0.03873140
   171  C          0.93952000       0.35983700       0.96795880
   172  C          0.06048000       0.85983700       0.03204120
   173  C          0.84413000       0.36142800       0.87241860
   174  C          0.15587000       0.86142800       0.12758140
   175  H          0.95140000       0.35250000       0.30710000
   176  H          0.04860000       0.85250000       0.69290000
   177  H          0.07900000       0.35390000       0.15490000
   178  H          0.92100000       0.85390000       0.84510000
   179  H          0.60780000       0.36350000       0.00600000
   180  H          0.39220000       0.86350000      -0.00600000
   181  H          0.48020000       0.36220000       0.15800000
   182  H          0.51980000       0.86220000       0.84200000
   183  N          0.40562000       0.48169800       0.22333130
   184  N          0.59438000       0.98169800       0.77666870
   185  N          0.89473000       0.48076100       0.39570140
   186  N          0.10527000       0.98076100       0.60429860
   187  N          0.40743000       0.47973900       0.84303860
   188  N          0.59257000       0.97973900       0.15696140
   189  N          0.91053000       0.49936900       0.67719860
   190  N          0.08947000      -0.00063100       0.32280140
   191  C          0.55323000       0.48191800       0.22110130
   192  C          0.44677000       0.98191800       0.77889870
   193  C          0.73593000       0.48159700       0.21886130
   194  C          0.26407000       0.98159700       0.78113870
   195  C          0.82643000       0.48122900       0.31666150
   196  C          0.17357000       0.98122900       0.68333850
   197  C          0.82142000       0.48195700       0.12747130
   198  C          0.17858000       0.98195700       0.87252870
   199  C          0.00612000       0.47999700       0.12663130
   200  C         -0.00612000       0.97999700       0.87336870
   201  C          0.08802000       0.48046700       0.03772130
   202  C          0.91198000       0.98046700       0.96227870
   203  C         -0.00588000       0.48370700       0.94159870
   204  C          0.00588000       0.98370700       0.05840130
   205  C          0.80882000       0.48559700       0.94192870
   206  C          0.19118000       0.98559700       0.05807130
   207  C          0.72722000       0.48434700       0.03075130
   208  C          0.27278000       0.98434700       0.96924870
   209  C          0.26103000       0.48262800       0.84607860
   210  C          0.73897000       0.98262800       0.15392140
   211  C          0.07823000       0.48632700       0.84947860
   212  C          0.92177000       0.98632700       0.15052140
   213  C         -0.01417000       0.49329800       0.75404850
   214  C          0.01417000       0.99329800       0.24595150
   215  H          0.07060000       0.47840000       0.18830000
   216  H          0.92940000       0.97840000       0.81170000
   217  H          0.20780000       0.47860000       0.03940000
   218  H          0.79220000       0.97860000       0.96060000
   219  H          0.74440000       0.48770000       0.88020000
   220  H          0.25560000       0.98770000       0.11980000
   221  H          0.60730000       0.48500000       0.02900000
   222  H          0.39270000       0.98500000       0.97100000
