data_PYRBPC
_symmetry_space_group_name_H-M    'P1'
_symmetry_Int_Tables_number       1
loop_
_symmetry_equiv_pos_site_id
_symmetry_equiv_pos_as_xyz
1 x,y,z
_cell_length_a                   8.1892
_cell_length_b                   21.0706
_cell_length_c                   14.6074
_cell_angle_alpha                90.0
_cell_angle_beta                 91.71
_cell_angle_gamma                90.0
loop_
_atom_site_label
_atom_site_type_symbol
_atom_site_fract_x
_atom_site_fract_y
_atom_site_fract_z
     1  Br         0.06350000       0.05573000       0.22390000
     2  Br         0.93650000       0.55573000       0.27610000
     3  Br         0.93650000       0.94427000       0.77610000
     4  Br         0.06350000       0.44427000       0.72390000
     5  C          0.17750000       0.12560000       0.18030000
     6  C          0.82250000       0.62560000       0.31970000
     7  C          0.82250000       0.87440000       0.81970000
     8  C          0.17750000       0.37440000       0.68030000
     9  C          0.11800000       0.18830000       0.18410000
    10  C          0.88200000       0.68830000       0.31590000
    11  C          0.88200000       0.81170000       0.81590000
    12  C          0.11800000       0.31170000       0.68410000
    13  C          0.20990000       0.24060000       0.16440000
    14  C          0.79010000       0.74060000       0.33560000
    15  C          0.79010000       0.75940000       0.83560000
    16  C          0.20990000       0.25940000       0.66440000
    17  C          0.37110000       0.23010000       0.13580000
    18  C          0.62890000       0.73010000       0.36420000
    19  C          0.62890000       0.76990000       0.86420000
    20  C          0.37110000       0.26990000       0.63580000
    21  C          0.43720000       0.16960000       0.13250000
    22  C          0.56280000       0.66960000       0.36750000
    23  C          0.56280000       0.83040000       0.86750000
    24  C          0.43720000       0.33040000       0.63250000
    25  C          0.33810000       0.12000000       0.15410000
    26  C          0.66190000       0.62000000       0.34590000
    27  C          0.66190000       0.88000000       0.84590000
    28  C          0.33810000       0.38000000       0.65410000
    29  H          0.15000000       0.27000000       0.16000000
    30  H          0.85000000       0.77000000       0.34000000
    31  H          0.85000000       0.73000000       0.84000000
    32  H          0.15000000       0.23000000       0.66000000
    33  H          0.53000000       0.17000000       0.09000000
    34  H          0.47000000       0.67000000       0.41000000
    35  H          0.47000000       0.83000000       0.91000000
    36  H          0.53000000       0.33000000       0.59000000
    37  N          0.94610000       0.20420000       0.21200000
    38  N          0.05390000       0.70420000       0.28800000
    39  N          0.05390000       0.79580000       0.78800000
    40  N          0.94610000       0.29580000       0.71200000
    41  N          0.47240000       0.28540000       0.11740000
    42  N          0.52760000       0.78540000       0.38260000
    43  N          0.52760000       0.71460000       0.88260000
    44  N          0.47240000       0.21460000       0.61740000
    45  N          0.41420000       0.05690000       0.14510000
    46  N          0.58580000       0.55690000       0.35490000
    47  N          0.58580000       0.94310000       0.85490000
    48  N          0.41420000       0.44310000       0.64510000
    49  O          0.84050000       0.16520000       0.19820000
    50  O          0.15950000       0.66520000       0.30180000
    51  O          0.15950000       0.83480000       0.80180000
    52  O          0.84050000       0.33480000       0.69820000
    53  O          0.92660000       0.25560000       0.24620000
    54  O          0.07340000       0.75560000       0.25380000
    55  O          0.07340000       0.74440000       0.75380000
    56  O          0.92660000       0.24440000       0.74620000
    57  O          0.41970000       0.33780000       0.13460000
    58  O          0.58030000       0.83780000       0.36540000
    59  O          0.58030000       0.66220000       0.86540000
    60  O          0.41970000       0.16220000       0.63460000
    61  O          0.60940000       0.27540000       0.09080000
    62  O          0.39060000       0.77540000       0.40920000
    63  O          0.39060000       0.72460000       0.90920000
    64  O          0.60940000       0.22460000       0.59080000
    65  O          0.52480000       0.04650000       0.19800000
    66  O          0.47520000       0.54650000       0.30200000
    67  O          0.47520000       0.95350000       0.80200000
    68  O          0.52480000       0.45350000       0.69800000
    69  O          0.35170000       0.01730000       0.09780000
    70  O          0.64830000       0.51730000       0.40220000
    71  O          0.64830000       0.98270000       0.90220000
    72  O          0.35170000       0.48270000       0.59780000
    73  C          0.88430000       0.32880000       0.47890000
    74  C          0.11570000       0.82880000       0.02110000
    75  C          0.11570000       0.67120000       0.52110000
    76  C          0.88430000       0.17120000       0.97890000
    77  C          0.38030000       0.15470000       0.39430000
    78  C          0.61970000       0.65470000       0.10570000
    79  C          0.61970000       0.84530000       0.60570000
    80  C          0.38030000       0.34530000       0.89430000
    81  C          0.25590000       0.19630000       0.41610000
    82  C          0.74410000       0.69630000       0.08390000
    83  C          0.74410000       0.80370000       0.58390000
    84  C          0.25590000       0.30370000       0.91610000
    85  C          0.10060000       0.17780000       0.44840000
    86  C          0.89940000       0.67780000       0.05160000
    87  C          0.89940000       0.82220000       0.55160000
    88  C          0.10060000       0.32220000       0.94840000
    89  C          0.98100000       0.21750000       0.46710000
    90  C          0.01900000       0.71750000       0.03290000
    91  C          0.01900000       0.78250000       0.53290000
    92  C          0.98100000       0.28250000       0.96710000
    93  C          0.00390000       0.28470000       0.45800000
    94  C         -0.00390000       0.78470000       0.04200000
    95  C         -0.00390000       0.71530000       0.54200000
    96  C          0.00390000       0.21530000       0.95800000
    97  C          0.15830000       0.30720000       0.42930000
    98  C          0.84170000       0.80720000       0.07070000
    99  C          0.84170000       0.69280000       0.57070000
   100  C          0.15830000       0.19280000       0.92930000
   101  C          0.28200000       0.26260000       0.40960000
   102  C          0.71800000       0.76260000       0.09040000
   103  C          0.71800000       0.73740000       0.59040000
   104  C          0.28200000       0.23740000       0.90960000
   105  C          0.91600000       0.39350000       0.47270000
   106  C          0.08400000       0.89350000       0.02730000
   107  C          0.08400000       0.60650000       0.52730000
   108  C          0.91600000       0.10650000       0.97270000
   109  C          0.05950000       0.41610000       0.44670000
   110  C          0.94050000       0.91610000       0.05330000
   111  C          0.94050000       0.58390000       0.55330000
   112  C          0.05950000       0.08390000       0.94670000
   113  C          0.18940000       0.37320000       0.42510000
   114  C          0.81060000       0.87320000       0.07490000
   115  C          0.81060000       0.62680000       0.57490000
   116  C          0.18940000       0.12680000       0.92510000
   117  C          0.34190000       0.39510000       0.39640000
   118  C          0.65810000       0.89510000       0.10360000
   119  C          0.65810000       0.60490000       0.60360000
   120  C          0.34190000       0.10490000       0.89640000
   121  C          0.46260000       0.35330000       0.37290000
   122  C          0.53740000       0.85330000       0.12710000
   123  C          0.53740000       0.64670000       0.62710000
   124  C          0.46260000       0.14670000       0.87290000
   125  C          0.43800000       0.28530000       0.37980000
   126  C          0.56200000       0.78530000       0.12020000
   127  C          0.56200000       0.71470000       0.62020000
   128  C          0.43800000       0.21470000       0.87980000
   129  C          0.55550000       0.23770000       0.35430000
   130  C          0.44450000       0.73770000       0.14570000
   131  C          0.44450000       0.76230000       0.64570000
   132  C          0.55550000       0.26230000       0.85430000
   133  C          0.52960000       0.17630000       0.36520000
   134  C          0.47040000       0.67630000       0.13480000
   135  C          0.47040000       0.82370000       0.63480000
   136  C          0.52960000       0.32370000       0.86520000
   137  H          0.78000000       0.31000000       0.49000000
   138  H          0.22000000       0.81000000       0.01000000
   139  H          0.22000000       0.69000000       0.51000000
   140  H          0.78000000       0.19000000       0.99000000
   141  H          0.34000000       0.11000000       0.41000000
   142  H          0.66000000       0.61000000       0.09000000
   143  H          0.66000000       0.89000000       0.59000000
   144  H          0.34000000       0.39000000       0.91000000
   145  H          0.10000000       0.13000000       0.44000000
   146  H          0.90000000       0.63000000       0.06000000
   147  H          0.90000000       0.87000000       0.56000000
   148  H          0.10000000       0.37000000       0.94000000
   149  H          0.89000000       0.19000000       0.50000000
   150  H          0.11000000       0.69000000       0.00000000
   151  H          0.11000000       0.81000000       0.50000000
   152  H          0.89000000       0.31000000      -0.00000000
   153  H          0.81000000       0.43000000       0.50000000
   154  H          0.19000000       0.93000000       0.00000000
   155  H          0.19000000       0.57000000       0.50000000
   156  H          0.81000000       0.07000000      -0.00000000
   157  H          0.08000000       0.46000000       0.43000000
   158  H          0.92000000       0.96000000       0.07000000
   159  H          0.92000000       0.54000000       0.57000000
   160  H          0.08000000       0.04000000       0.93000000
   161  H          0.36000000       0.44000000       0.38000000
   162  H          0.64000000       0.94000000       0.12000000
   163  H          0.64000000       0.56000000       0.62000000
   164  H          0.36000000       0.06000000       0.88000000
   165  H          0.57000000       0.37000000       0.36000000
   166  H          0.43000000       0.87000000       0.14000000
   167  H          0.43000000       0.63000000       0.64000000
   168  H          0.57000000       0.13000000       0.86000000
   169  H          0.65000000       0.26000000       0.36000000
   170  H          0.35000000       0.76000000       0.14000000
   171  H          0.35000000       0.74000000       0.64000000
   172  H          0.65000000       0.24000000       0.86000000
   173  H          0.58000000       0.14000000       0.35000000
   174  H          0.42000000       0.64000000       0.15000000
   175  H          0.42000000       0.86000000       0.65000000
   176  H          0.58000000       0.36000000       0.85000000
   177  C          0.00010000       0.40740000       0.19510000
   178  C         -0.00010000       0.90740000       0.30490000
   179  C         -0.00010000       0.59260000       0.80490000
   180  C          0.00010000       0.09260000       0.69510000
   181  C          0.14030000       0.43910000       0.17280000
   182  C          0.85970000       0.93910000       0.32720000
   183  C          0.85970000       0.56090000       0.82720000
   184  C          0.14030000       0.06090000       0.67280000
   185  C          0.14020000       0.47470000       0.09870000
   186  C          0.85980000       0.97470000       0.40130000
   187  C          0.85980000       0.52530000       0.90130000
   188  C          0.14020000       0.02530000       0.59870000
   189  C          0.28530000       0.50920000       0.07050000
   190  C          0.71470000       0.00920000       0.42950000
   191  C          0.71470000       0.49080000       0.92950000
   192  C          0.28530000       0.99080000       0.57050000
   193  C          0.84910000       0.41170000       0.14300000
   194  C          0.15090000       0.91170000       0.35700000
   195  C          0.15090000       0.58830000       0.85700000
   196  C          0.84910000       0.08830000       0.64300000
   197  C          0.85590000       0.44890000       0.06470000
   198  C          0.14410000       0.94890000       0.43530000
   199  C          0.14410000       0.55110000       0.93530000
   200  C          0.85590000       0.05110000       0.56470000
   201  C          0.28590000       0.54330000      -0.00420000
   202  C          0.71410000       0.04330000       0.50420000
   203  C          0.71410000       0.45670000       0.00420000
   204  C          0.28590000       0.95670000       0.49580000
   205  C         -0.00240000       0.48110000       0.03930000
   206  C          0.00240000       0.98110000       0.46070000
   207  C          0.00240000       0.51890000       0.96070000
   208  C         -0.00240000       0.01890000       0.53930000
   209  H          0.03000000       0.38000000       0.25000000
   210  H          0.97000000       0.88000000       0.25000000
   211  H          0.97000000       0.62000000       0.75000000
   212  H          0.03000000       0.12000000       0.75000000
   213  H          0.24000000       0.45000000       0.22000000
   214  H          0.76000000       0.95000000       0.28000000
   215  H          0.76000000       0.55000000       0.78000000
   216  H          0.24000000       0.05000000       0.72000000
   217  H          0.37000000       0.49000000       0.12000000
   218  H          0.63000000       0.99000000       0.38000000
   219  H          0.63000000       0.51000000       0.88000000
   220  H          0.37000000       0.01000000       0.62000000
   221  H          0.82000000       0.38000000       0.14000000
   222  H          0.18000000       0.88000000       0.36000000
   223  H          0.18000000       0.62000000       0.86000000
   224  H          0.82000000       0.12000000       0.64000000
