data_PYRIDI01
_symmetry_space_group_name_H-M    'P1'
_symmetry_Int_Tables_number       1
loop_
_symmetry_equiv_pos_site_id
_symmetry_equiv_pos_as_xyz
1 x,y,z
_cell_length_a                   4.35761
_cell_length_b                   15.32332
_cell_length_c                   16.88022
_cell_angle_alpha                90.0
_cell_angle_beta                 91.73091
_cell_angle_gamma                90.0
loop_
_atom_site_label
_atom_site_type_symbol
_atom_site_fract_x
_atom_site_fract_y
_atom_site_fract_z
     1  I          0.00000000       0.50000000       0.50000000
     2  I          0.50000000      -0.00000000       0.00000000
     3  N          0.12748000       0.37232000       0.44382000
     4  N          0.37252000       0.87232000       0.05618000
     5  N          0.87252000       0.62768000       0.55618000
     6  N          0.62748000       0.12768000       0.94382000
     7  C          0.30531000       0.37283000       0.38063000
     8  C          0.19469000       0.87283000       0.11937000
     9  C          0.69469000       0.62717000       0.61937000
    10  C          0.80531000       0.12717000       0.88063000
    11  C          0.38471100       0.29533000       0.34323000
    12  C          0.11528900       0.79533000       0.15677000
    13  C          0.61528900       0.70467000       0.65677000
    14  C          0.88471100       0.20467000       0.84323000
    15  C          0.28261200       0.21753000       0.37273000
    16  C          0.21738800       0.71753000       0.12727000
    17  C          0.71738800       0.78247000       0.62727000
    18  C          0.78261200       0.28247000       0.87273000
    19  C          0.09651100       0.21823000       0.43873000
    20  C          0.40348900       0.71823000       0.06127000
    21  C          0.90348900       0.78177000       0.56127000
    22  C          0.59651100       0.28177000       0.93873000
    23  C          0.02451000       0.29653000       0.47313000
    24  C          0.47549000       0.79653000       0.02687000
    25  C         -0.02451000       0.70347000       0.52687000
    26  C          0.52451000       0.20347000       0.97313000
    27  H          0.37640000       0.42570000       0.36090000
    28  H          0.12360000       0.92570000       0.13910000
    29  H          0.62360000       0.57430000       0.63910000
    30  H          0.87640000       0.07430000       0.86090000
    31  H          0.50640000       0.29560000       0.29880000
    32  H         -0.00640000       0.79560000       0.20120000
    33  H          0.49360000       0.70440000       0.70120000
    34  H          0.00640000       0.20440000       0.79880000
    35  H          0.33680000       0.16470000       0.34900000
    36  H          0.16320000       0.66470000       0.15100000
    37  H          0.66320000       0.83530000       0.65100000
    38  H          0.83680000       0.33530000       0.84900000
    39  H          0.02360000       0.16630000       0.45880000
    40  H          0.47640000       0.66630000       0.04120000
    41  H         -0.02360000       0.83370000       0.54120000
    42  H          0.52360000       0.33370000       0.95880000
    43  H          0.90100000       0.29680000       0.51760000
    44  H          0.59900000       0.79680000       0.98240000
    45  H          0.09900000       0.70320000       0.48240000
    46  H          0.40100000       0.20320000       0.01760000
    47  I          0.37335600       0.33329919       0.67736116
    48  I          0.12664400       0.83329919       0.82263884
    49  I          0.62664400       0.66670081       0.32263884
    50  I          0.87335600       0.16670081       0.17736116
    51  I          0.18365600       0.47837518       0.75753616
    52  I          0.31634400       0.97837518       0.74246384
    53  I          0.81634400       0.52162482       0.24246384
    54  I          0.68365600       0.02162482       0.25753616
    55  I          0.87948300       0.63111017       0.87721817
    56  I          0.62051700       0.13111017       0.62278183
    57  I          0.12051700       0.36888983       0.12278183
    58  I          0.37948300       0.86888983       0.37721817
    59  I          0.00000000       0.50000000       0.00000000
    60  I          0.50000000       0.00000000       0.50000000
