data_PYTCNA10
_symmetry_space_group_name_H-M    'P1'
_symmetry_Int_Tables_number       1
loop_
_symmetry_equiv_pos_site_id
_symmetry_equiv_pos_as_xyz
1 x,y,z
_cell_length_a                   14.541919
_cell_length_b                   13.723314
_cell_length_c                   7.80169
_cell_angle_alpha                104.0591
_cell_angle_beta                 110.72312
_cell_angle_gamma                94.08411
loop_
_atom_site_label
_atom_site_type_symbol
_atom_site_fract_x
_atom_site_fract_y
_atom_site_fract_z
     1  C          0.08210000       0.91900000       0.03460000
     2  C          0.91790000       0.08100000       0.96540000
     3  C          0.13930000       0.00710000       0.03030000
     4  C          0.86070000      -0.00710000       0.96970000
     5  C          0.17940000       0.08960000       0.18470000
     6  C          0.82060000       0.91040000       0.81530000
     7  C          0.16820000       0.09210000       0.36040000
     8  C          0.83180000       0.90790000       0.63960000
     9  C          0.11170000       0.00310000       0.36500000
    10  C          0.88830000      -0.00310000       0.63500000
    11  C          0.07060000       0.92140000       0.21050000
    12  C          0.92940000       0.07860000       0.78950000
    13  C          0.03960000       0.83480000       0.87520000
    14  C          0.96040000       0.16520000       0.12480000
    15  C          0.21030000       0.17620000       0.52120000
    16  C          0.78970000       0.82380000       0.47880000
    17  C          0.98070000       0.74730000       0.87660000
    18  C          0.01930000       0.25270000       0.12340000
    19  C          0.05120000       0.82940000       0.69950000
    20  C          0.94880000       0.17060000       0.30050000
    21  C          0.26480000       0.26660000       0.52020000
    22  C          0.73520000       0.73340000       0.47980000
    23  C          0.20260000       0.17790000       0.69870000
    24  C          0.79740000       0.82210000       0.30130000
    25  N          0.93220000       0.67820000       0.87600000
    26  N          0.06780000       0.32180000       0.12400000
    27  N          0.05980000       0.82510000       0.55800000
    28  N          0.94020000       0.17490000       0.44200000
    29  N          0.30740000       0.34000000       0.52200000
    30  N          0.69260000       0.66000000       0.47800000
    31  N          0.19820000       0.18050000       0.84240000
    32  N          0.80180000       0.81950000       0.15760000
    33  H          0.14700000       0.00600000       0.91000000
    34  H          0.85300000      -0.00600000       0.09000000
    35  H          0.21500000       0.14800000       0.18000000
    36  H          0.78500000       0.85200000       0.82000000
    37  H          0.10400000       0.00700000       0.48300000
    38  H          0.89600000      -0.00700000       0.51700000
    39  H          0.03500000       0.86400000       0.21800000
    40  H          0.96500000       0.13600000       0.78200000
    41  C          0.32210000       0.86330000       0.70230000
    42  C          0.67790000       0.13670000       0.29770000
    43  C          0.35160000       0.95830000       0.67490000
    44  C          0.64840000       0.04170000       0.32510000
    45  C          0.38880000       0.04480000       0.82290000
    46  C          0.61120000       0.95520000       0.17710000
    47  C          0.40030000       0.04480000       0.01310000
    48  C          0.59970000       0.95520000      -0.01310000
    49  C          0.37280000       0.94890000       0.04060000
    50  C          0.62720000       0.05110000       0.95940000
    51  C          0.33500000       0.86300000       0.89220000
    52  C          0.66500000       0.13700000       0.10780000
    53  C          0.28140000       0.77470000       0.55080000
    54  C          0.71860000       0.22530000       0.44920000
    55  C          0.43560000       0.13350000       0.16420000
    56  C          0.56440000       0.86650000       0.83580000
    57  C          0.25150000       0.68180000       0.58170000
    58  C          0.74850000       0.31820000       0.41830000
    59  C          0.26650000       0.77080000       0.35820000
    60  C          0.73350000       0.22920000       0.64180000
    61  C          0.45890000       0.23120000       0.14150000
    62  C          0.54110000       0.76880000       0.85850000
    63  C          0.44750000       0.13330000       0.35440000
    64  C          0.55250000       0.86670000       0.64560000
    65  N          0.22970000       0.60700000       0.60940000
    66  N          0.77030000       0.39300000       0.39060000
    67  N          0.25520000       0.76670000       0.20450000
    68  N          0.74480000       0.23330000       0.79550000
    69  N          0.47720000       0.31030000       0.12710000
    70  N          0.52280000       0.68970000       0.87290000
    71  N          0.45680000       0.13390000       0.50620000
    72  N          0.54320000       0.86610000       0.49380000
    73  H          0.34200000       0.95800000       0.54700000
    74  H          0.65800000       0.04200000       0.45300000
    75  H          0.40800000       0.11000000       0.80300000
    76  H          0.59200000       0.89000000       0.19700000
    77  H          0.37900000       0.94800000       0.16400000
    78  H          0.62100000       0.05200000       0.83600000
    79  H          0.31700000       0.80000000       0.91500000
    80  H          0.68300000       0.20000000       0.08500000
    81  N          0.28100000       0.48990000       0.03970000
    82  N          0.71900000       0.51010000       0.96030000
    83  C          0.35230000       0.54710000       0.01510000
    84  C          0.64770000       0.45290000      -0.01510000
    85  C          0.43690000       0.59720000       0.16660000
    86  C          0.56310000       0.40280000       0.83340000
    87  C          0.45050000       0.59120000       0.34720000
    88  C          0.54950000       0.40880000       0.65280000
    89  C          0.37740000       0.53260000       0.36910000
    90  C          0.62260000       0.46740000       0.63090000
    91  C          0.29390000       0.48260000       0.21540000
    92  C          0.70610000       0.51740000       0.78460000
    93  C          0.18540000       0.43990000       0.87680000
    94  C          0.81460000       0.56010000       0.12320000
    95  C          0.10440000       0.50140000       0.86750000
    96  C          0.89560000       0.49860000       0.13250000
    97  C          0.00630000       0.44450000       0.70770000
    98  C         -0.00630000       0.55550000       0.29230000
    99  H          0.33500000       0.54300000       0.88000000
   100  H          0.66500000       0.45700000       0.12000000
   101  H          0.49100000       0.64000000       0.15300000
   102  H          0.50900000       0.36000000       0.84700000
   103  H          0.51100000       0.63300000       0.46500000
   104  H          0.48900000       0.36700000       0.53500000
   105  H          0.38300000       0.52700000       0.49800000
   106  H          0.61700000       0.47300000       0.50200000
   107  H          0.23800000       0.44000000       0.21500000
   108  H          0.76200000       0.56000000       0.78500000
   109  H          0.20400000       0.42700000       0.76200000
   110  H          0.79600000       0.57300000       0.23800000
   111  H          0.17200000       0.37200000       0.88700000
   112  H          0.82800000       0.62800000       0.11300000
   113  H          0.12300000       0.57100000       0.85500000
   114  H          0.87700000       0.42900000       0.14500000
   115  H          0.09600000       0.51900000      -0.00400000
   116  H          0.90400000       0.48100000       0.00400000
   117  H          0.02100000       0.41700000       0.58500000
   118  H          0.97900000       0.58300000       0.41500000
   119  H          0.94900000       0.49000000       0.69200000
   120  H          0.05100000       0.51000000       0.30800000
   121  H         -0.01400000       0.37800000       0.73300000
   122  H          0.01400000       0.62200000       0.26700000
