data_QACBAA
_symmetry_space_group_name_H-M    'P1'
_symmetry_Int_Tables_number       1
loop_
_symmetry_equiv_pos_site_id
_symmetry_equiv_pos_as_xyz
1 x,y,z
_cell_length_a                   6.16405
_cell_length_b                   7.11097
_cell_length_c                   10.66631
_cell_angle_alpha                101.9588
_cell_angle_beta                 98.2548
_cell_angle_gamma                114.2229
loop_
_atom_site_label
_atom_site_type_symbol
_atom_site_fract_x
_atom_site_fract_y
_atom_site_fract_z
     1  C          0.53977000       0.13343000       0.23103180
     2  C          0.46023000       0.86657000       0.76896820
     3  N          0.75387000       0.23282000       0.20287160
     4  N          0.24613000       0.76718000       0.79712840
     5  H          0.89230000       0.28870000       0.26490000
     6  H          0.10770000       0.71130000       0.73510000
     7  H          0.75720000       0.24260000       0.12220000
     8  H          0.24280000       0.75740000       0.87780000
     9  N          0.54117000       0.12132000       0.35415150
    10  N          0.45883000       0.87868000       0.64584850
    11  H          0.68180000       0.17840000       0.41470000
    12  H          0.31820000       0.82160000       0.58530000
    13  H          0.40160000       0.05630000       0.37490000
    14  H          0.59840000       0.94370000       0.62510000
    15  S          0.27158200       0.03004700       0.11119400
    16  S          0.72841800       0.96995300       0.88880600
    17  C          0.87773000       0.76083000       0.35394180
    18  C          0.12227000       0.23917000       0.64605820
    19  C          0.59883000       0.69933000       0.15155180
    20  C          0.40117000       0.30067000       0.84844820
    21  H          0.57590000       0.71990000       0.06640000
    22  H          0.42410000       0.28010000       0.93360000
    23  C          0.40473000       0.58523000       0.19254180
    24  C          0.59527000       0.41477000       0.80745820
    25  C          0.43123000       0.55093000       0.32035180
    26  C          0.56877000       0.44907000       0.67964820
    27  F          0.17419180       0.49840170       0.11515100
    28  F          0.82580820       0.50159830       0.88484900
    29  N          0.83063000       0.78642000       0.23228150
    30  N          0.16937000       0.21358000       0.76771850
    31  H          0.95560000       0.86300000       0.20380000
    32  H          0.04440000       0.13700000       0.79620000
    33  N          0.67173000       0.64432000       0.39292140
    34  N          0.32827000       0.35568000       0.60707860
    35  H          0.69690000       0.62810000       0.47250000
    36  H          0.30310000       0.37190000       0.52750000
    37  O          0.08722000       0.83652000       0.42535130
    38  O          0.91278000       0.16348000       0.57464870
    39  O          0.26032000       0.44970190       0.36586120
    40  O          0.73968000       0.55029810       0.63413880
