data_QADGEH
_symmetry_space_group_name_H-M    'P1'
_symmetry_Int_Tables_number       1
loop_
_symmetry_equiv_pos_site_id
_symmetry_equiv_pos_as_xyz
1 x,y,z
_cell_length_a                   6.8623
_cell_length_b                   9.8912
_cell_length_c                   15.2462
_cell_angle_alpha                90.0
_cell_angle_beta                 101.782
_cell_angle_gamma                90.0
loop_
_atom_site_label
_atom_site_type_symbol
_atom_site_fract_x
_atom_site_fract_y
_atom_site_fract_z
     1  Br         0.01061000       0.39981000       0.00441000
     2  Br         0.51061000       0.60019000       0.50441000
     3  Br         0.43381000       0.56271000       0.98779000
     4  Br         0.93381000       0.43729000       0.48779000
     5  Br         0.41271000       0.84861000       0.30701000
     6  Br         0.91271000       0.15139000       0.80701000
     7  Br        -0.01801000       0.69071000       0.32061000
     8  Br         0.48199000       0.30929000       0.82061000
     9  O          0.53177000       0.76585000       0.13603000
    10  O          0.03177000       0.23415000       0.63603000
    11  O          0.86973000       0.50075000       0.16433000
    12  O          0.36973000       0.49925000       0.66433000
    13  C          0.12809000       0.53336000       0.08554000
    14  C          0.62809000       0.46664000       0.58554000
    15  C          0.29859000       0.59886000       0.08034000
    16  C          0.79859000       0.40114000       0.58034000
    17  C          0.38679000       0.70146000       0.14454000
    18  C          0.88679000       0.29854000       0.64454000
    19  C          0.28588000       0.72576000       0.22094000
    20  C          0.78588000       0.27424000       0.72094000
    21  C          0.11568000       0.66366000       0.22704000
    22  C          0.61568000       0.33634000       0.72704000
    23  C          0.02309000       0.56126000       0.15884000
    24  C          0.52309000       0.43874000       0.65884000
    25  N          0.54968000       0.46415000       0.26204000
    26  N          0.04968000       0.53585000       0.76204000
    27  N          0.86151000       0.78554000       0.02214000
    28  N          0.36151000       0.21446000       0.52214000
    29  C          0.40268000       0.36526000       0.25284000
    30  C          0.90268000       0.63474000       0.75284000
    31  C          0.38258000       0.26455000       0.18423000
    32  C          0.88258000       0.73545000       0.68423000
    33  C          0.51249000       0.25566000       0.12334000
    34  C          0.01249000       0.74434000       0.62334000
    35  C          0.48511000       0.16206000       0.05754000
    36  C         -0.01489000       0.83794000       0.55754000
    37  C          0.32539000       0.06826000       0.04514000
    38  C          0.82539000       0.93174000       0.54514000
    39  C          0.29171000       0.97234000       0.97726000
    40  C          0.79171000       0.02766000       0.47726000
    41  C          0.13491000       0.88164000       0.96835000
    42  C          0.63491000       0.11836000       0.46835000
    43  C          0.00629000       0.88104000       0.02874000
    44  C          0.50629000       0.11896000       0.52874000
    45  C          0.03558000       0.97765000       0.09874000
    46  C          0.53558000       0.02235000       0.59874000
    47  C          0.90551000       0.98474000       0.16204000
    48  C          0.40551000       0.01526000       0.66204000
    49  C          0.93111000       0.07826000       0.22664000
    50  C          0.43111000       0.92174000       0.72664000
    51  C          0.09228000       0.17685000       0.23624000
    52  C          0.59228000       0.82315000       0.73624000
    53  C          0.11299000       0.27686000       0.30194000
    54  C          0.61299000       0.72314000       0.80194000
    55  C          0.26739000       0.36956000       0.30954000
    56  C          0.76739000       0.63044000       0.80954000
    57  C          0.22448000       0.17005000       0.17644000
    58  C          0.72448000       0.82995000       0.67644000
    59  C          0.19828000       0.07205000       0.10744000
    60  C          0.69828000       0.92795000       0.60744000
    61  H          0.58610000       0.50570000       0.31650000
    62  H          0.08610000       0.49430000       0.81650000
    63  H          0.65010000       0.45160000       0.22850000
    64  H          0.15010000       0.54840000       0.72850000
    65  H          0.83710000       0.74350000       0.97580000
    66  H          0.33710000       0.25650000       0.47580000
    67  H          0.72589000       0.79330000       0.04960000
    68  H          0.22589000       0.20670000       0.54960000
    69  H          0.61211000       0.32280000       0.12850000
    70  H          0.11211000       0.67720000       0.62850000
    71  H          0.59210000       0.16870000       0.01450000
    72  H          0.09210000       0.83130000       0.51450000
    73  H          0.35510000      -0.01370000       0.93750000
    74  H          0.85510000       0.01370000       0.43750000
    75  H          0.10310000       0.82230000       0.92250000
    76  H          0.60310000       0.17770000       0.42250000
    77  H          0.79020000       0.91750000       0.15640000
    78  H          0.29020000       0.08250000       0.65640000
    79  H          0.86890000       0.08460000       0.27540000
    80  H          0.36890000       0.91540000       0.77540000
    81  H          0.02580000       0.28550000       0.34640000
    82  H          0.52580000       0.71450000       0.84640000
    83  H          0.27811000       0.44860000       0.36450000
    84  H          0.77811000       0.55140000       0.86450000
