data_QADWAV
_symmetry_space_group_name_H-M    'P1'
_symmetry_Int_Tables_number       1
loop_
_symmetry_equiv_pos_site_id
_symmetry_equiv_pos_as_xyz
1 x,y,z
_cell_length_a                   5.99745
_cell_length_b                   10.71131
_cell_length_c                   14.303714
_cell_angle_alpha                86.5868
_cell_angle_beta                 82.3667
_cell_angle_gamma                86.3487
loop_
_atom_site_label
_atom_site_type_symbol
_atom_site_fract_x
_atom_site_fract_y
_atom_site_fract_z
     1  I          0.93975800       0.21424215       0.60652310
     2  I          0.06024200       0.78575785       0.39347690
     3  O          0.54272000       0.15556140       0.08367100
     4  O          0.45728000       0.84443860       0.91632900
     5  H          0.47450000       0.24830000       0.12620000
     6  H          0.52550000       0.75170000       0.87380000
     7  N          0.32552000       0.19901150       0.83611900
     8  N          0.67448000       0.80098850       0.16388100
     9  C          0.45743000       0.29262000       0.83939850
    10  C          0.54257000       0.70738000       0.16060150
    11  H          0.58970000       0.29630000       0.79750000
    12  H          0.41030000       0.70370000       0.20250000
    13  C          0.40443000       0.38482000       0.90299850
    14  C          0.59557000       0.61518000       0.09700150
    15  H          0.49630000       0.45160000       0.90230000
    16  H          0.50370000       0.54840000       0.09770000
    17  C          0.21463000       0.37682000       0.96744860
    18  C          0.78537000       0.62318000       0.03255140
    19  H          0.18190000       0.43620000       0.01280000
    20  H          0.81810000       0.56380000       0.98720000
    21  C          0.86993000       0.26785190       0.02986130
    22  C          0.13007000       0.73214810       0.97013870
    23  H          0.83380000       0.32580000       0.07620000
    24  H          0.16620000       0.67420000       0.92380000
    25  C          0.72833000       0.17205180       0.02509130
    26  C          0.27167000       0.82794820       0.97490870
    27  C          0.78733000       0.08674190       0.95255870
    28  C          0.21267000       0.91325810       0.04744130
    29  H          0.69160000       0.02320000       0.94750000
    30  H          0.30840000       0.97680000       0.05250000
    31  C          0.97933000       0.09421190       0.88976870
    32  C          0.02067000       0.90578810       0.11023130
    33  H          0.01320000       0.03640000       0.84320000
    34  H         -0.01320000       0.96360000       0.15680000
    35  C          0.12443000       0.18980180       0.89619870
    36  C          0.87557000       0.81019820       0.10380130
    37  C          0.06823000       0.27909180       0.96561870
    38  C          0.93177000       0.72090820       0.03438130
    39  C          0.39533000       0.10142000       0.76850860
    40  C          0.60467000       0.89858000       0.23149140
    41  H          0.29110000       0.10360000       0.72290000
    42  H          0.70890000       0.89640000       0.27710000
    43  H          0.39710000       0.02080000       0.80160000
    44  H          0.60290000       0.97920000       0.19840000
    45  H          0.54350000       0.11620000       0.73680000
    46  H          0.45650000       0.88380000       0.26320000
    47  O          0.38852000       0.34046140       0.16850100
    48  O          0.61148000       0.65953860       0.83149900
    49  N          0.57997000       0.25790160       0.39229100
    50  N          0.42003000       0.74209840       0.60770900
    51  C          0.43626000       0.35322000       0.41584140
    52  C          0.56374000       0.64678000       0.58415860
    53  H          0.29950000       0.33730000       0.45210000
    54  H          0.70050000       0.66270000       0.54790000
    55  C          0.48326000       0.47542000       0.38824140
    56  C          0.51674000       0.52458000       0.61175860
    57  H          0.37890000       0.54090000       0.40480000
    58  H          0.62110000       0.45910000       0.59520000
    59  C          0.68616000       0.49862000       0.33604140
    60  C          0.31384000       0.50138000       0.66395860
    61  H          0.72210000       0.58090000       0.31940000
    62  H          0.27790000       0.41910000       0.68060000
    63  C          0.04803000       0.42012000       0.25081130
    64  C          0.95197000       0.57988000       0.74918870
    65  H          0.08610000       0.50160000       0.23260000
    66  H          0.91390000       0.49840000       0.76740000
    67  C          0.19483000       0.32165190       0.22206130
    68  C          0.80517000       0.67834810       0.77793870
    69  C          0.13263000       0.19952000       0.25345130
    70  C          0.86737000       0.80048000       0.74654870
    71  H          0.22960000       0.13180000       0.23450000
    72  H          0.77040000       0.86820000       0.76550000
    73  C          0.93717000       0.17631190       0.31017130
    74  C          0.06283000       0.82368810       0.68982870
    75  H          0.90490000       0.09470000       0.33100000
    76  H          0.09510000       0.90530000       0.66900000
    77  C          0.78567000       0.27643190       0.33678120
    78  C          0.21433000       0.72356810       0.66321880
    79  C          0.84087000       0.39993190       0.30738120
    80  C          0.15913000       0.60006810       0.69261880
    81  C          0.52386000       0.13072000       0.42790160
    82  C          0.47614000       0.86928000       0.57209840
    83  H          0.39810000       0.13530000       0.47690000
    84  H          0.60190000       0.86470000       0.52310000
    85  H          0.65130000       0.08890000       0.45280000
    86  H          0.34870000       0.91110000       0.54720000
    87  H          0.48550000       0.08480000       0.37720000
    88  H          0.51450000       0.91520000       0.62280000
