data_QAFCIN
_symmetry_space_group_name_H-M    'P1'
_symmetry_Int_Tables_number       1
loop_
_symmetry_equiv_pos_site_id
_symmetry_equiv_pos_as_xyz
1 x,y,z
_cell_length_a                   8.54104
_cell_length_b                   14.05077
_cell_length_c                   7.51374
_cell_angle_alpha                90.0
_cell_angle_beta                 98.8276
_cell_angle_gamma                90.0
loop_
_atom_site_label
_atom_site_type_symbol
_atom_site_fract_x
_atom_site_fract_y
_atom_site_fract_z
     1  N         -0.00249850       0.35914900       0.31532180
     2  N          0.00249850       0.85914900       0.18467820
     3  N          0.00249850       0.64085100       0.68467820
     4  N         -0.00249850       0.14085100       0.81532180
     5  H          0.92920000       0.40251300       0.35020000
     6  H          0.07080000       0.90251300       0.14980000
     7  H          0.07080000       0.59748700       0.64980000
     8  H          0.92920000       0.09748700       0.85020000
     9  N          0.96429140       0.26559900       0.32111170
    10  N          0.03570860       0.76559900       0.17888830
    11  N          0.03570860       0.73440100       0.67888830
    12  N          0.96429140       0.23440100       0.82111170
    13  H          0.87420000       0.24591200       0.35520000
    14  H          0.12580000       0.74591200       0.14480000
    15  H          0.12580000       0.75408800       0.64480000
    16  H          0.87420000       0.25408800       0.85520000
    17  N          0.08253190       0.11913100       0.27522000
    18  N          0.91746810       0.61913100       0.22478000
    19  N          0.91746810       0.88086900       0.72478000
    20  N          0.08253190       0.38086900       0.77522000
    21  H          0.00030000       0.09551500       0.29830000
    22  H         -0.00030000       0.59551500       0.20170000
    23  H         -0.00030000       0.90448500       0.70170000
    24  H          0.00030000       0.40448500       0.79830000
    25  H          0.14720000       0.08431400       0.21530000
    26  H          0.85280000       0.58431400       0.28470000
    27  H          0.85280000       0.91568600       0.78470000
    28  H          0.14720000       0.41568600       0.71530000
    29  C          0.08323160       0.21506100       0.27297190
    30  C          0.91676840       0.71506100       0.22702810
    31  C          0.91676840       0.78493900       0.72702810
    32  C          0.08323160       0.28493900       0.77297190
    33  C          0.19608170       0.27973110       0.23282000
    34  C          0.80391830       0.77973110       0.26718000
    35  C          0.80391830       0.72026890       0.76718000
    36  C          0.19608170       0.22026890       0.73282000
    37  H          0.29190000       0.26590000       0.19430000
    38  H          0.70810000       0.76590000       0.30570000
    39  H          0.70810000       0.73410000       0.80570000
    40  H          0.29190000       0.23410000       0.69430000
    41  C          0.13683180       0.36775110       0.26192000
    42  C          0.86316820       0.86775110       0.23808000
    43  C          0.86316820       0.63224890       0.73808000
    44  C          0.13683180       0.13224890       0.76192000
    45  H          0.18720000       0.42510000       0.24620000
    46  H          0.81280000       0.92510000       0.25380000
    47  H          0.81280000       0.57490000       0.75380000
    48  H          0.18720000       0.07490000       0.74620000
    49  C          0.66915150       0.41618900       0.45088190
    50  C          0.33084850       0.91618900       0.04911810
    51  C          0.33084850       0.58381100       0.54911810
    52  C          0.66915150       0.08381100       0.95088190
    53  O          0.68480130       0.32808700       0.44357180
    54  O          0.31519870       0.82808700       0.05642820
    55  O          0.31519870       0.67191300       0.55642820
    56  O          0.68480130       0.17191300       0.94357180
    57  O          0.77359110       0.47336700       0.41820160
    58  O          0.22640890       0.97336700       0.08179840
    59  O          0.22640890       0.52663300       0.58179840
    60  O          0.77359110       0.02663300       0.91820160
    61  C          0.51841150       0.45462900       0.50057180
    62  C          0.48158850       0.95462900      -0.00057180
    63  C          0.48158850       0.54537100       0.49942820
    64  C          0.51841150       0.04537100       0.00057180
    65  H          0.44600000       0.41140000       0.53450000
    66  H          0.55400000       0.91140000       0.96550000
    67  H          0.55400000       0.58860000       0.46550000
    68  H          0.44600000       0.08860000       0.03450000
    69  C          0.63476160       0.10443100       0.45702000
    70  C          0.36523840       0.60443100       0.04298000
    71  C          0.36523840       0.89556900       0.54298000
    72  C          0.63476160       0.39556900       0.95702000
    73  O          0.53859130       0.17395800       0.48097190
    74  O          0.46140870       0.67395800       0.01902810
    75  O          0.46140870       0.82604200       0.51902810
    76  O          0.53859130       0.32604200       0.98097190
    77  H          0.58030000       0.23231700       0.47130000
    78  H          0.41970000       0.73231700       0.02870000
    79  H          0.41970000       0.76768300       0.52870000
    80  H          0.58030000       0.26768300       0.97130000
    81  O          0.76437130       0.11540700       0.41269170
    82  O          0.23562870       0.61540700       0.08730830
    83  O          0.23562870       0.88459300       0.58730830
    84  O          0.76437130       0.38459300       0.91269170
    85  C          0.57247160       0.00849100       0.48682000
    86  C          0.42752840       0.50849100       0.01318000
    87  C          0.42752840      -0.00849100       0.51318000
    88  C          0.57247160       0.49150900      -0.01318000
    89  H          0.64090000       0.95700000       0.48680000
    90  H          0.35910000       0.45700000       0.01320000
    91  H          0.35910000       0.04300000       0.51320000
    92  H          0.64090000       0.54300000      -0.01320000
