data_QAFFOS
_symmetry_space_group_name_H-M    'P1'
_symmetry_Int_Tables_number       1
loop_
_symmetry_equiv_pos_site_id
_symmetry_equiv_pos_as_xyz
1 x,y,z
_cell_length_a                   16.351
_cell_length_b                   3.7023
_cell_length_c                   20.231
_cell_angle_alpha                90.0
_cell_angle_beta                 90.0
_cell_angle_gamma                90.0
loop_
_atom_site_label
_atom_site_type_symbol
_atom_site_fract_x
_atom_site_fract_y
_atom_site_fract_z
     1  O          0.12361000       0.34134000       0.60451000
     2  O          0.87639000       0.65866000       0.10451000
     3  O          0.62361000       0.65866000       0.60451000
     4  O          0.37639000       0.34134000       0.10451000
     5  O          0.23801000       0.54104000       0.65091000
     6  O          0.76199000       0.45896000       0.15091000
     7  O          0.73801000       0.45896000       0.65091000
     8  O          0.26199000       0.54104000       0.15091000
     9  C          0.16882000       0.38782000       0.65291000
    10  C          0.83118000       0.61218000       0.15291000
    11  C          0.66882000       0.61218000       0.65291000
    12  C          0.33118000       0.38782000       0.15291000
    13  H          0.14820000       0.29710000       0.69720000
    14  H          0.85180000       0.70290000       0.19720000
    15  H          0.64820000       0.70290000       0.69720000
    16  H          0.35180000       0.29710000       0.19720000
    17  O          0.20831000       0.88043000       0.80631000
    18  O          0.79169000       0.11957000       0.30631000
    19  O          0.70831000       0.11957000       0.80631000
    20  O          0.29169000       0.88043000       0.30631000
    21  O          0.31821000       0.64603000       0.75771000
    22  O          0.68179000       0.35397000       0.25771000
    23  O          0.81821000       0.35397000       0.75771000
    24  O          0.18179000       0.64603000       0.25771000
    25  C          0.27902000       0.80051000       0.80571000
    26  C          0.72098000       0.19949000       0.30571000
    27  C          0.77902000       0.19949000       0.80571000
    28  C          0.22098000       0.80051000       0.30571000
    29  H          0.31730000       0.85900000       0.84220000
    30  H          0.68270000       0.14100000       0.34220000
    31  H          0.81730000       0.14100000       0.84220000
    32  H          0.18270000       0.85900000       0.34220000
    33  H          0.28620000       0.60900000       0.72620000
    34  H          0.71380000       0.39100000       0.22620000
    35  H          0.78620000       0.39100000       0.72620000
    36  H          0.21380000       0.60900000       0.22620000
    37  O          0.23361000       0.05166000       0.45161000
    38  O          0.76639000       0.94834000       0.95161000
    39  O          0.73361000       0.94834000       0.45161000
    40  O          0.26639000       0.05166000       0.95161000
    41  O          0.28591000       0.81124000       0.54201000
    42  O          0.71409000       0.18876000       0.04201000
    43  O          0.78591000       0.18876000       0.54201000
    44  O          0.21409000       0.81124000       0.04201000
    45  C          0.22552000       0.89823000       0.50421000
    46  C          0.77448000       0.10177000       0.00421000
    47  C          0.72552000       0.10177000       0.50421000
    48  C          0.27448000       0.89823000       0.00421000
    49  H          0.17420000       0.83110000       0.52120000
    50  H          0.82580000       0.16890000       0.02120000
    51  H          0.67420000       0.16890000       0.52120000
    52  H          0.32580000       0.83110000       0.02120000
    53  H          0.26830000       0.67900000       0.58130000
    54  H          0.73170000       0.32100000       0.08130000
    55  H          0.76830000       0.32100000       0.58130000
    56  H          0.23170000       0.67900000       0.08130000
    57  O          0.01142000       0.89242000       0.72141000
    58  O          0.98858000       0.10758000       0.22141000
    59  O          0.51142000       0.10758000       0.72141000
    60  O          0.48858000       0.89242000       0.22141000
    61  O          0.98118000       0.04443000       0.61781000
    62  O          0.01882000       0.95557000       0.11781000
    63  O          0.48118000       0.95557000       0.61781000
    64  O          0.51882000       0.04443000       0.11781000
    65  C          0.96518000       0.89911000       0.67562000
    66  C          0.03482000       0.10089000       0.17562000
    67  C          0.46518000       0.10089000       0.67562000
    68  C          0.53482000       0.89911000       0.17562000
    69  H          0.91180000       0.78900000       0.67320000
    70  H          0.08820000       0.21100000       0.17320000
    71  H          0.41180000       0.21100000       0.67320000
    72  H          0.58820000       0.78900000       0.17320000
    73  H          0.03020000       0.11900000       0.61820000
    74  H          0.96980000       0.88100000       0.11820000
    75  H          0.53020000       0.88100000       0.61820000
    76  H          0.46980000       0.11900000       0.11820000
    77  N          0.39471000       0.25587000       0.40942000
    78  N          0.60529000       0.74413000       0.90942000
    79  N          0.89471000       0.74413000       0.40942000
    80  N          0.10529000       0.25587000       0.90942000
    81  C          0.42682000       0.29839000       0.46952000
    82  C          0.57318000       0.70161000       0.96952000
    83  C          0.92682000       0.70161000       0.46952000
    84  C          0.07318000       0.29839000       0.96952000
    85  C          0.50392000       0.43498000       0.47541000
    86  C          0.49608000       0.56502000       0.97541000
    87  C          0.00392000       0.56502000       0.47541000
    88  C         -0.00392000       0.43498000       0.97541000
    89  C          0.54701000       0.52857000       0.41941000
    90  C          0.45299000       0.47143000       0.91941000
    91  C          0.04701000       0.47143000       0.41941000
    92  C          0.95299000       0.52857000       0.91941000
    93  C          0.51172000       0.47919000       0.35781000
    94  C          0.48828000       0.52081000       0.85781000
    95  C          0.01172000       0.52081000       0.35781000
    96  C          0.98828000       0.47919000       0.85781000
    97  C          0.43462000       0.34019000       0.35401000
    98  C          0.56538000       0.65981000       0.85401000
    99  C          0.93462000       0.65981000       0.35401000
   100  C          0.06538000       0.34019000       0.85401000
   101  H          0.34630000       0.17100000       0.40220000
   102  H          0.65370000       0.82900000       0.90220000
   103  H          0.84630000       0.82900000       0.40220000
   104  H          0.15370000       0.17100000       0.90220000
   105  H          0.39330000       0.23100000       0.50620000
   106  H          0.60670000       0.76900000       0.00620000
   107  H          0.89330000       0.76900000       0.50620000
   108  H          0.10670000       0.23100000       0.00620000
   109  H          0.52620000       0.47100000       0.51920000
   110  H          0.47380000       0.52900000       0.01920000
   111  H          0.02620000       0.52900000       0.51920000
   112  H          0.97380000       0.47100000       0.01920000
   113  H          0.59620000       0.62890000       0.42020000
   114  H          0.40380000       0.37110000       0.92020000
   115  H          0.09620000       0.37110000       0.42020000
   116  H          0.90380000       0.62890000       0.92020000
   117  H          0.53720000       0.55100000       0.31920000
   118  H          0.46280000       0.44900000       0.81920000
   119  H          0.03720000       0.44900000       0.31920000
   120  H          0.96280000       0.55100000       0.81920000
   121  H          0.40730000       0.30100000       0.31220000
   122  H          0.59270000       0.69900000       0.81220000
   123  H          0.90730000       0.69900000       0.31220000
   124  H          0.09270000       0.30100000       0.81220000
