data_QAFFOS01
_symmetry_space_group_name_H-M    'P1'
_symmetry_Int_Tables_number       1
loop_
_symmetry_equiv_pos_site_id
_symmetry_equiv_pos_as_xyz
1 x,y,z
_cell_length_a                   3.55995
_cell_length_b                   16.5335
_cell_length_c                   9.798418
_cell_angle_alpha                90.0
_cell_angle_beta                 93.77712
_cell_angle_gamma                90.0
loop_
_atom_site_label
_atom_site_type_symbol
_atom_site_fract_x
_atom_site_fract_y
_atom_site_fract_z
     1  C          0.35891700       0.66066000       0.21805000
     2  C          0.64108300       0.16066000       0.78195000
     3  H          0.44320000       0.60770000       0.21100000
     4  H          0.55680000       0.10770000       0.78900000
     5  O          0.43621100       0.69894000       0.32683000
     6  O          0.56378900       0.19894000       0.67317000
     7  O          0.16891000       0.69204000       0.11683000
     8  O          0.83109000       0.19204000       0.88317000
     9  C          0.36378400       0.75097000       0.73835000
    10  C          0.63621600       0.25097000       0.26165000
    11  H          0.27130000       0.69830000       0.74060000
    12  H          0.72870000       0.19830000       0.25940000
    13  C          0.48838400       0.79186000       0.85665000
    14  C          0.51161600       0.29186000       0.14335000
    15  H          0.47730000       0.76590000       0.94060000
    16  H          0.52270000       0.26590000       0.05940000
    17  C          0.38548300       0.79347000       0.61545000
    18  C          0.61451700       0.29347000       0.38455000
    19  H          0.30340000       0.76910000       0.53320000
    20  H          0.69660000       0.26910000       0.46680000
    21  C          0.62418600       0.86746000       0.85365000
    22  C          0.37581400       0.36746000       0.14635000
    23  N          0.64238300       0.90886000       0.73344000
    24  N          0.35761700       0.40886000       0.26656000
    25  C          0.52418400       0.86927000       0.61545000
    26  C          0.47581600       0.36927000       0.38455000
    27  H          0.54050000       0.89560000       0.53230000
    28  H          0.45950000       0.39560000       0.46770000
    29  H          0.69089000       0.88950000       0.93860000
    30  H          0.30911000       0.38950000       0.06140000
    31  H          0.79984000       0.95850000       0.73950000
    32  H          0.20016000       0.45850000       0.26050000
    33  O          0.08451500       0.10724000       0.09154000
    34  O          0.91548500       0.60724000       0.90846000
    35  H          0.93080000       0.12370000       0.03200000
    36  H          0.06920000       0.62370000       0.96800000
    37  C          0.17511800       0.03497000       0.06497000
    38  C          0.82488200       0.53497000       0.93503000
    39  H          0.28500000       0.00440000       0.13660000
    40  H          0.71500000       0.50440000       0.86340000
    41  O          0.13141600       0.00245000       0.95505000
    42  O          0.86858400       0.50245000       0.04495000
    43  O          0.22231200       0.13094000       0.46673000
    44  O          0.77768800       0.63094000       0.53327000
    45  H          0.37200000       0.14120000       0.53160000
    46  H          0.62800000       0.64120000       0.46840000
    47  O          0.05911300       0.02844000       0.59785000
    48  O          0.94088700       0.52844000       0.40215000
    49  C          0.05771800       0.06177000       0.48797000
    50  C          0.94228200       0.56177000       0.51203000
    51  H          0.93120000       0.03650000       0.41350000
    52  H          0.06880000       0.53650000       0.58650000
    53  O          0.90548600       0.83604000       0.14463000
    54  O          0.09451400       0.33604000       0.85537000
    55  H          0.00660000       0.79140000       0.14710000
    56  H         -0.00660000       0.29140000       0.85290000
    57  C          0.84268300       0.85876000       0.26875000
    58  C          0.15731700       0.35876000       0.73125000
    59  H          0.92640000       0.82460000       0.33990000
    60  H          0.07360000       0.32460000       0.66010000
    61  O          0.69088400       0.91805000       0.29784000
    62  O          0.30911600       0.41805000       0.70216000
