data_QAGHUE
_symmetry_space_group_name_H-M    'P1'
_symmetry_Int_Tables_number       1
loop_
_symmetry_equiv_pos_site_id
_symmetry_equiv_pos_as_xyz
1 x,y,z
_cell_length_a                   11.68394
_cell_length_b                   13.68386
_cell_length_c                   14.75576
_cell_angle_alpha                67.4094
_cell_angle_beta                 89.3513
_cell_angle_gamma                67.2494
loop_
_atom_site_label
_atom_site_type_symbol
_atom_site_fract_x
_atom_site_fract_y
_atom_site_fract_z
     1  O          0.83309900       0.03500900       0.63752700
     2  O          0.16690100       0.96499100       0.36247300
     3  N          0.77924110      -0.00245100       0.58585900
     4  N          0.22075890       0.00245100       0.41414100
     5  C          0.75769140       0.05008130       0.48576110
     6  C          0.24230860       0.94991870       0.51423890
     7  H          0.77950000       0.11210000       0.45350000
     8  H          0.22050000       0.88790000       0.54650000
     9  C          0.70366140       0.01286130       0.43073110
    10  C          0.29633860       0.98713870       0.56926890
    11  H          0.68980000       0.04970000       0.36170000
    12  H          0.31020000       0.95030000       0.63830000
    13  C          0.66969130       0.92091870       0.47729110
    14  C          0.33030870       0.07908130       0.52270890
    15  C          0.69276150       0.86954860       0.58080120
    16  C          0.30723850       0.13045140       0.41919880
    17  H          0.67120000       0.80780000       0.61460000
    18  H          0.32880000       0.19220000       0.38540000
    19  C          0.74692140       0.90837870       0.63412110
    20  C          0.25307860       0.09162130       0.36587890
    21  H          0.76120000       0.87320000       0.70330000
    22  H          0.23880000       0.12680000       0.29670000
    23  C          0.61094160       0.87926840       0.41807130
    24  C          0.38905840       0.12073160       0.58192870
    25  H          0.52120000       0.92150000       0.40600000
    26  H          0.47880000       0.07850000       0.59400000
    27  H          0.63260000       0.79780000       0.45460000
    28  H          0.36740000       0.20220000       0.54540000
    29  H          0.64150000       0.89200000       0.35570000
    30  H          0.35850000       0.10800000       0.64430000
    31  O         -0.00702900       0.25430900       0.64067700
    32  O          0.00702900       0.74569100       0.35932300
    33  N          0.00134110       0.29221100       0.54333900
    34  N         -0.00134110       0.70778900       0.45666100
    35  C          0.06540140       0.35801130       0.50577110
    36  C          0.93459860       0.64198870       0.49422890
    37  H          0.10670000       0.37470000       0.54760000
    38  H          0.89330000       0.62530000       0.45240000
    39  C          0.06988140       0.40062130       0.40559110
    40  C          0.93011860       0.59937870       0.59440890
    41  H          0.11420000       0.44630000       0.38010000
    42  H          0.88580000       0.55370000       0.61990000
    43  C          0.00919140       0.37656130       0.34163110
    44  C          0.99080860       0.62343870       0.65836890
    45  C          0.94663150       0.30612140       0.38413110
    46  C          0.05336850       0.69387860       0.61586890
    47  H          0.90640000       0.28670000       0.34410000
    48  H          0.09360000       0.71330000       0.65590000
    49  C          0.94333140       0.26460140       0.48471110
    50  C          0.05666860       0.73539860       0.51528890
    51  H          0.90100000       0.21750000       0.51220000
    52  H          0.09900000       0.78250000       0.48780000
    53  C          0.01262170       0.42385160       0.23211120
    54  C          0.98737830       0.57614840       0.76788880
    55  H          0.04840000       0.47970000       0.21560000
    56  H          0.95160000       0.52030000       0.78440000
    57  H          0.92870000       0.46070000       0.19610000
    58  H          0.07130000       0.53930000       0.80390000
    59  H          0.06290000       0.36140000       0.21450000
    60  H          0.93710000       0.63860000       0.78550000
    61  O          0.15311110       0.24655100       0.12603800
    62  O          0.84688890       0.75344900       0.87396200
    63  H          0.09620000       0.22420000       0.11891800
    64  H          0.90380000       0.77580000       0.88108200
    65  C          0.14559160       0.33895160       0.03602130
    66  C          0.85440840       0.66104840       0.96397870
    67  H          0.18140000       0.30850000       0.98860000
    68  H          0.81860000       0.69150000       0.01140000
    69  H          0.19120000       0.37920000       0.04800000
    70  H          0.80880000       0.62080000       0.95200000
    71  H          0.05910000       0.39190000       0.01030000
    72  H          0.94090000       0.60810000      -0.01030000
    73  O          0.27712900       0.45527900       0.52971700
    74  O          0.72287100       0.54472100       0.47028300
    75  H          0.26560000       0.49030000       0.46900000
    76  H          0.73440000       0.50970000       0.53100000
    77  O          0.46644900       0.71635800       0.51211700
    78  O          0.53355100       0.28364200       0.48788300
    79  H          0.44330000       0.73990000       0.45240000
    80  H          0.55670000       0.26010000       0.54760000
    81  O          0.80029900       0.93247100       0.02905700
    82  O          0.19970100       0.06752900       0.97094300
    83  H          0.78710000       0.92780000       0.08490000
    84  H          0.21290000       0.07220000       0.91510000
    85  O          0.62946900       0.16670900       0.68724700
    86  O          0.37053100       0.83329100       0.31275300
    87  H          0.69910000       0.12270000       0.68350000
    88  H          0.30090000       0.87730000       0.31650000
    89  O          0.97173900       0.16006900       0.24133700
    90  O          0.02826100       0.83993100       0.75866300
    91  H          0.02890000       0.09840000       0.27810000
    92  H          0.97110000       0.90160000       0.72190000
    93  O          0.80089100       0.89416100       0.23551700
    94  O          0.19910900       0.10583900       0.76448300
    95  H          0.86920000       0.84478100       0.27761600
    96  H          0.13080000       0.15521900       0.72238400
    97  O          0.80047900       0.40776900       0.67191700
    98  O          0.19952100       0.59223100       0.32808300
    99  H          0.86180000       0.35380000       0.66920000
   100  H          0.13820000       0.64620000       0.33080000
   101  O          0.98648900       0.20348900       0.01709700
   102  O          0.01351100       0.79651100       0.98290300
   103  H          0.04140000       0.16510000      -0.00580000
   104  H          0.95860000       0.83490000       0.00580000
   105  C          0.51303120       0.54639120       0.66027100
   106  C          0.48696880       0.45360880       0.33972900
   107  C          0.49516120       0.44524120       0.71098900
   108  C          0.50483880       0.55475880       0.28901100
   109  H          0.53740000       0.39710000       0.77570000
   110  H          0.46260000       0.60290000       0.22430000
   111  C          0.41717120       0.41269120       0.66945100
   112  C          0.58282880       0.58730880       0.33054900
   113  C          0.35397120       0.48653120       0.57246100
   114  C          0.64602880       0.51346880       0.42753900
   115  C          0.36858120       0.58857120       0.51949100
   116  C          0.63141880       0.41142880       0.48050900
   117  H          0.32540000       0.63720000       0.45510000
   118  H          0.67460000       0.36280000       0.54490000
   119  C          0.44789120       0.61753120       0.56313100
   120  C          0.55210880       0.38246880       0.43686900
   121  C          0.39762120       0.30233120       0.72587100
   122  C          0.60237880       0.69766880       0.27412900
   123  H          0.39200000       0.27050000       0.67770000
   124  H          0.60800000       0.72950000       0.32230000
   125  C          0.50580130       0.20835120       0.80811100
   126  C          0.49419870       0.79164880       0.19188900
   127  C          0.49898120       0.18328120       0.90842100
   128  C          0.50101880       0.81671880       0.09157900
   129  H          0.42600000       0.22810000       0.92470000
   130  H          0.57400000       0.77190000       0.07530000
   131  C          0.59513130       0.09488120       0.98576100
   132  C          0.40486870       0.90511880       0.01423900
   133  C          0.70221130       0.02727120       0.95924100
   134  C          0.29778870       0.97272880       0.04075900
   135  C          0.71483130       0.05139120       0.86020100
   136  C          0.28516870       0.94860880       0.13979900
   137  H          0.78810000       0.00700000       0.84390000
   138  H          0.21190000       0.99300000       0.15610000
   139  C          0.61786130       0.14189120       0.78560100
   140  C          0.38213870       0.85810880       0.21439900
   141  C          0.58891130       0.07232120       0.09481100
   142  C          0.41108870       0.92767880       0.90518900
   143  H          0.60870000       0.98940000       0.13130000
   144  H          0.39130000       0.01060000       0.86870000
   145  C          0.69054120       0.09567120       0.13565900
   146  C          0.30945880       0.90432880       0.86434100
   147  C          0.69045120       0.20625120       0.09810900
   148  C          0.30954880       0.79374880       0.90189100
   149  H          0.62450000       0.26700000       0.04900000
   150  H          0.37550000       0.73300000       0.95100000
   151  C          0.78390120       0.23022120       0.13038900
   152  C          0.21609880       0.76977880       0.86961100
   153  C          0.88002130       0.13818120       0.20675100
   154  C          0.11997870       0.86181880       0.79324900
   155  C          0.88553130       0.02649120       0.24400100
   156  C          0.11446870       0.97350880       0.75599900
   157  H          0.95090000       0.96580000       0.29370000
   158  H          0.04910000       0.03420000       0.70630000
   159  C          0.79272130       0.00564120       0.20656100
   160  C          0.20727870      -0.00564120       0.79343900
   161  C          0.78997120       0.34741120       0.07602100
   162  C          0.21002880       0.65258880       0.92397900
   163  H          0.87010000       0.34060000       0.10340000
   164  H          0.12990000       0.65940000       0.89660000
   165  C          0.79342120       0.37035120       0.96625900
   166  C          0.20657880       0.62964880       0.03374100
   167  C          0.70085120       0.46232120       0.88867100
   168  C          0.29914880       0.53767880       0.11132900
   169  H          0.63520000       0.51610000       0.90370000
   170  H          0.36480000       0.48390000       0.09630000
   171  C          0.70109120       0.47842120       0.78900100
   172  C          0.29890880       0.52157880       0.21099900
   173  C          0.79942130       0.39533120       0.76896100
   174  C          0.20057870       0.60466880       0.23103900
   175  C          0.89547130       0.30331120       0.84397100
   176  C          0.10452870       0.69668880       0.15602900
   177  H          0.96120000       0.24970000       0.82880000
   178  H          0.03880000       0.75030000       0.17120000
   179  C          0.89291120       0.29168120       0.94152100
   180  C          0.10708880       0.70831880       0.05847900
   181  C          0.60126120       0.58047120       0.70439100
   182  C          0.39873880       0.41952880       0.29560900
   183  H          0.64620000       0.60930000       0.65120000
   184  H          0.35380000       0.39070000       0.34880000
   185  C          0.52645140       0.68256120       0.73151100
   186  C          0.47354860       0.31743880       0.26848900
   187  H          0.47370000       0.74820000       0.67290000
   188  H          0.52630000       0.25180000       0.32710000
   189  H          0.58360000       0.70290000       0.75880000
   190  H          0.41640000       0.29710000       0.24120000
   191  H          0.47530000       0.66050000       0.77980000
   192  H          0.52470000       0.33950000       0.22020000
   193  C          0.26980130       0.33462130       0.76232100
   194  C          0.73019870       0.66537870       0.23767900
   195  H          0.26930000       0.37120000       0.80640000
   196  H          0.73070000       0.62880000       0.19360000
   197  H          0.25640000       0.26550000       0.79700000
   198  H          0.74360000       0.73450000       0.20300000
   199  H          0.20400000       0.38730000       0.70630000
   200  H          0.79600000       0.61270000       0.29370000
   201  C          0.45989130       0.14014130       0.11455100
   202  C          0.54010870       0.85985870       0.88544900
   203  H          0.46150000       0.11700000       0.18490000
   204  H          0.53850000       0.88300000       0.81510000
   205  H          0.39760000       0.12410000       0.08840000
   206  H          0.60240000       0.87590000       0.91160000
   207  H          0.43950000       0.22190000       0.08280000
   208  H          0.56050000       0.77810000       0.91720000
   209  C          0.68502130       0.44509120       0.09363100
   210  C          0.31497870       0.55490880       0.90636900
   211  H          0.69300000       0.51700000       0.05880000
   212  H          0.30700000       0.48300000       0.94120000
   213  H          0.69160000       0.42700000       0.16350000
   214  H          0.30840000       0.57300000       0.83650000
   215  H          0.60480000       0.45250000       0.06960000
   216  H          0.39520000       0.54750000       0.93040000
