data_QAGQEX
_symmetry_space_group_name_H-M    'P1'
_symmetry_Int_Tables_number       1
loop_
_symmetry_equiv_pos_site_id
_symmetry_equiv_pos_as_xyz
1 x,y,z
_cell_length_a                   9.984013
_cell_length_b                   12.933314
_cell_length_c                   13.652918
_cell_angle_alpha                117.4207
_cell_angle_beta                 99.86913
_cell_angle_gamma                96.1281
loop_
_atom_site_label
_atom_site_type_symbol
_atom_site_fract_x
_atom_site_fract_y
_atom_site_fract_z
     1  S          0.64161300       0.70274300       0.03651200
     2  S          0.35838700       0.29725700       0.96348800
     3  O          0.73873900       0.48551800       0.80785800
     4  O          0.26126100       0.51448200       0.19214200
     5  O          0.54338900       0.61566800       0.61934700
     6  O          0.45661100       0.38433200       0.38065300
     7  N          0.55595100       0.43183900       0.86441900
     8  N          0.44404900       0.56816100       0.13558100
     9  H          0.51591400       0.39311200       0.89451100
    10  H          0.48408600       0.60688800       0.10548900
    11  N          0.48312100       0.50775800       0.84280800
    12  N          0.51687900       0.49224200       0.15719200
    13  N          0.48157100       0.67828800       0.84538800
    14  N          0.51842900       0.32171200       0.15461200
    15  H          0.49451500       0.75608000       0.87071100
    16  H          0.50548500       0.24392000       0.12928900
    17  N          0.31175100       0.62302800       0.57932800
    18  N          0.68824900       0.37697200       0.42067200
    19  C          0.68603120       0.42666100       0.84551100
    20  C          0.31396880       0.57333900       0.15448900
    21  C          0.75784120       0.34470100       0.87414100
    22  C          0.24215880       0.65529900       0.12585900
    23  C          0.68754140       0.25268110       0.88461110
    24  C          0.31245860       0.74731890       0.11538890
    25  H          0.58950000       0.24030000       0.87430000
    26  H          0.41050000       0.75970000       0.12570000
    27  C          0.76074160       0.17892130       0.91022130
    28  C          0.23925840       0.82107870       0.08977870
    29  H          0.71240000       0.11610000       0.91700000
    30  H          0.28760000       0.88390000       0.08300000
    31  C          0.90330170       0.19671140       0.92586130
    32  C          0.09669830       0.80328860       0.07413870
    33  H          0.95300000       0.14620000       0.94330000
    34  H          0.04700000       0.85380000       0.05670000
    35  C          0.97362150       0.28840150       0.91612130
    36  C          0.02637850       0.71159850       0.08387870
    37  H          0.07190000       0.30130000       0.92790000
    38  H          0.92810000       0.69870000       0.07210000
    39  C          0.90141130       0.36157130       0.88919120
    40  C          0.09858870       0.63842870       0.11080880
    41  H          0.95010000       0.42330000       0.88100000
    42  H          0.04990000       0.57670000       0.11900000
    43  C          0.53548110       0.62932100       0.90599100
    44  C          0.46451890       0.37067900       0.09400900
    45  C          0.42689110       0.47315100       0.72224900
    46  C          0.57310890       0.52684900       0.27775100
    47  H          0.50430000       0.45710000       0.68310000
    48  H          0.49570000       0.54290000       0.31690000
    49  C          0.31040120       0.36483100       0.65819100
    50  C          0.68959880       0.63516900       0.34180900
    51  C          0.22399120       0.32930100       0.71219100
    52  C          0.77600880       0.67069900       0.28780900
    53  H          0.23940000       0.37290000       0.79270000
    54  H          0.76060000       0.62710000       0.20730000
    55  C          0.11528130       0.23011110       0.64838110
    56  C          0.88471870       0.76988890       0.35161890
    57  H          0.05680000       0.20610000       0.68550000
    58  H          0.94320000       0.79390000       0.31450000
    59  C          0.09171130       0.16607110       0.53089110
    60  C          0.90828870       0.83392890       0.46910890
    61  H          0.01660000       0.09890000       0.48740000
    62  H         -0.01660000       0.90110000       0.51260000
    63  C          0.17864130       0.20061110       0.47707110
    64  C          0.82135870       0.79938890       0.52292890
    65  H          0.16320000       0.15650000       0.39660000
    66  H          0.83680000       0.84350000       0.60340000
    67  C          0.28771120       0.29912100       0.54011100
    68  C          0.71228880       0.70087900       0.45988900
    69  H          0.34710000       0.32190000       0.50280000
    70  H          0.65290000       0.67810000       0.49720000
    71  C          0.39007110       0.59227100       0.73432900
    72  C          0.60992890       0.40772900       0.26567100
    73  C          0.23998120       0.60309900       0.72229900
    74  C          0.76001880       0.39690100       0.27770100
    75  C          0.14709120       0.59912100       0.78551100
    76  C          0.85290880       0.40087900       0.21448900
    77  H          0.17440000       0.58730000       0.84910000
    78  H          0.82560000       0.41270000       0.15090000
    79  C          0.01242130       0.61281100       0.75402100
    80  C         -0.01242130       0.38718900       0.24597900
    81  H          0.94670000       0.60880000       0.79560000
    82  H          0.05330000       0.39120000       0.20440000
    83  C          0.97400870       0.63227100       0.66196110
    84  C          0.02599130       0.36772900       0.33803890
    85  H          0.88200000       0.64170000       0.64180000
    86  H          0.11800000       0.35830000       0.35820000
    87  C          0.06768120       0.63834100       0.59840100
    88  C          0.93231880       0.36165900       0.40159900
    89  H          0.04180000       0.65290000       0.53630000
    90  H          0.95820000       0.34710000       0.46370000
    91  C          0.19933120       0.62228900       0.62998900
    92  C          0.80066880       0.37771100       0.37001100
    93  C          0.42871120       0.61187900       0.63806900
    94  C          0.57128880       0.38812100       0.36193100
    95  C          0.30826130       0.64168100       0.48166100
    96  C          0.69173870       0.35831900       0.51833900
    97  H          0.21750000       0.59830000       0.42560000
    98  H          0.78250000       0.40170000       0.57440000
    99  H          0.38180000       0.60750000       0.44480000
   100  H          0.61820000       0.39250000       0.55520000
   101  C          0.32912120       0.77176110       0.51269100
   102  C          0.67087880       0.22823890       0.48730900
   103  C          0.25847140       0.80333120       0.43731120
   104  C          0.74152860       0.19666880       0.56268880
   105  H          0.19680000       0.74350000       0.36760000
   106  H          0.80320000       0.25650000       0.63240000
   107  C          0.27725160       0.92190140       0.46294140
   108  C          0.72274840       0.07809860       0.53705860
   109  H          0.22850000       0.94260000       0.41060000
   110  H          0.77150000       0.05740000       0.58940000
   111  C          0.36577170       0.00929140       0.56334160
   112  C          0.63422830      -0.00929140       0.43665840
   113  H          0.37740000       0.09040000       0.58110000
   114  H          0.62260000       0.90960000       0.41890000
   115  C          0.43793170       0.97861130       0.63844150
   116  C          0.56206830       0.02138870       0.36155850
   117  H          0.50010000       0.03880000       0.70770000
   118  H          0.49990000       0.96120000       0.29230000
   119  C          0.41998150       0.86028120       0.61324130
   120  C          0.58001850       0.13971880       0.38675870
   121  H          0.47020000       0.83990000       0.66520000
   122  H          0.52980000       0.16010000       0.33480000
   123  O          0.38846100       0.07982800       0.07487800
   124  O          0.61153900       0.92017200       0.92512200
   125  O          0.17512100       0.02306800       0.95914800
   126  O          0.82487900       0.97693200       0.04085200
   127  C          0.20086160       0.16026160       0.15070130
   128  C          0.79913840       0.83973840       0.84929870
   129  H          0.24780000       0.16790000       0.22360000
   130  H          0.75220000       0.83210000       0.77640000
   131  H          0.10220000       0.12340000       0.13110000
   132  H          0.89780000       0.87660000       0.86890000
   133  H          0.20940000       0.23940000       0.15700000
   134  H          0.79060000       0.76060000       0.84300000
   135  C          0.26655130       0.08413110       0.05978110
   136  C          0.73344870       0.91586890       0.94021890
   137  C          0.22776170       0.95625860       0.85938130
   138  C          0.77223830       0.04374140       0.14061870
   139  H          0.21860000       0.87200000       0.84130000
   140  H          0.78140000       0.12800000       0.15870000
   141  H          0.32720000      -0.00910000       0.87420000
   142  H          0.67280000       0.00910000       0.12580000
   143  C          0.14394170       0.96388860       0.76280130
   144  C          0.85605830       0.03611140       0.23719870
   145  H          0.04510000       0.93400000       0.75200000
   146  H          0.95490000       0.06600000       0.24800000
   147  H          0.17270000       0.91570000       0.69320000
   148  H          0.82730000       0.08430000       0.30680000
   149  H          0.15870000       0.04710000       0.77950000
   150  H          0.84130000       0.95290000       0.22050000
