data_QAGXAB
_symmetry_space_group_name_H-M    'P1'
_symmetry_Int_Tables_number       1
loop_
_symmetry_equiv_pos_site_id
_symmetry_equiv_pos_as_xyz
1 x,y,z
_cell_length_a                   12.858201
_cell_length_b                   12.466401
_cell_length_c                   15.435801
_cell_angle_alpha                90.0
_cell_angle_beta                 95.73801
_cell_angle_gamma                90.0
loop_
_atom_site_label
_atom_site_type_symbol
_atom_site_fract_x
_atom_site_fract_y
_atom_site_fract_z
     1  P          0.63489200       0.26828300       0.59742200
     2  P          0.36510800       0.26828300       0.90257800
     3  P          0.13489200       0.76828300       0.59742200
     4  P          0.86510800       0.76828300       0.90257800
     5  P          0.36510800       0.73171700       0.40257800
     6  P          0.63489200       0.73171700       0.09742200
     7  P          0.86510800       0.23171700       0.40257800
     8  P          0.13489200       0.23171700       0.09742200
     9  O          0.59865700       0.38168700       0.58138600
    10  O          0.40134300       0.38168700       0.91861400
    11  O          0.09865700       0.88168700       0.58138600
    12  O          0.90134300       0.88168700       0.91861400
    13  O          0.40134300       0.61831300       0.41861400
    14  O          0.59865700       0.61831300       0.08138600
    15  O          0.90134300       0.11831300       0.41861400
    16  O          0.09865700       0.11831300       0.08138600
    17  C          0.70133100       0.21716100       0.50803800
    18  C          0.29866900       0.21716100      -0.00803800
    19  C          0.20133100       0.71716100       0.50803800
    20  C          0.79866900       0.71716100      -0.00803800
    21  C          0.29866900       0.78283900       0.49196200
    22  C          0.70133100       0.78283900       0.00803800
    23  C          0.79866900       0.28283900       0.49196200
    24  C          0.20133100       0.28283900       0.00803800
    25  H          0.72236000       0.14190300       0.52053000
    26  H          0.27764000       0.14190300       0.97947000
    27  H          0.22236000       0.64190300       0.52053000
    28  H          0.77764000       0.64190300       0.97947000
    29  H          0.27764000       0.85809700       0.47947000
    30  H          0.72236000       0.85809700       0.02053000
    31  H          0.77764000       0.35809700       0.47947000
    32  H          0.22236000       0.35809700       0.02053000
    33  H          0.65217400       0.21744300       0.45440300
    34  H          0.34782600       0.21744300       0.04559700
    35  H          0.15217400       0.71744300       0.45440300
    36  H          0.84782600       0.71744300       0.04559700
    37  H          0.34782600       0.78255700       0.54559700
    38  H          0.65217400       0.78255700       0.95440300
    39  H          0.84782600       0.28255700       0.54559700
    40  H          0.15217400       0.28255700       0.95440300
    41  C          0.72539100       0.25872110       0.69350900
    42  C          0.27460900       0.25872110       0.80649100
    43  C          0.22539100       0.75872110       0.69350900
    44  C          0.77460900       0.75872110       0.80649100
    45  C          0.27460900       0.74127890       0.30649100
    46  C          0.72539100       0.74127890       0.19350900
    47  C          0.77460900       0.24127890       0.30649100
    48  C          0.22539100       0.24127890       0.19350900
    49  C          0.72370120       0.33851120       0.75690900
    50  C          0.27629880       0.33851120       0.74309100
    51  C          0.22370120       0.83851120       0.75690900
    52  C          0.77629880       0.83851120       0.74309100
    53  C          0.27629880       0.66148880       0.24309100
    54  C          0.72370120       0.66148880       0.25690900
    55  C          0.77629880       0.16148880       0.24309100
    56  C          0.22370120       0.16148880       0.25690900
    57  H          0.67379400       0.39481700       0.74983000
    58  H          0.32620600       0.39481700       0.75017000
    59  H          0.17379400       0.89481700       0.74983000
    60  H          0.82620600       0.89481700       0.75017000
    61  H          0.32620600       0.60518300       0.25017000
    62  H          0.67379400       0.60518300       0.24983000
    63  H          0.82620600       0.10518300       0.25017000
    64  H          0.17379400       0.10518300       0.24983000
    65  C          0.79545140       0.33498150       0.83033100
    66  C          0.20454860       0.33498150       0.66966900
    67  C          0.29545140       0.83498150       0.83033100
    68  C          0.70454860       0.83498150       0.66966900
    69  C          0.20454860       0.66501850       0.16966900
    70  C          0.79545140       0.66501850       0.33033100
    71  C          0.70454860       0.16501850       0.16966900
    72  C          0.29545140       0.16501850       0.33033100
    73  H          0.79438600       0.38876100       0.87384100
    74  H          0.20561400       0.38876100       0.62615900
    75  H          0.29438600       0.88876100       0.87384100
    76  H          0.70561400       0.88876100       0.62615900
    77  H          0.20561400       0.61123900       0.12615900
    78  H          0.79438600       0.61123900       0.37384100
    79  H          0.70561400       0.11123900       0.12615900
    80  H          0.29438600       0.11123900       0.37384100
    81  C          0.86859130       0.25311160       0.84022100
    82  C          0.13140870       0.25311160       0.65977900
    83  C          0.36859130       0.75311160       0.84022100
    84  C          0.63140870       0.75311160       0.65977900
    85  C          0.13140870       0.74688840       0.15977900
    86  C          0.86859130       0.74688840       0.34022100
    87  C          0.63140870       0.24688840       0.15977900
    88  C          0.36859130       0.24688840       0.34022100
    89  H          0.91851700       0.25202800       0.88993200
    90  H          0.08148300       0.25202800       0.61006800
    91  H          0.41851700       0.75202800       0.88993200
    92  H          0.58148300       0.75202800       0.61006800
    93  H          0.08148300       0.74797200       0.11006800
    94  H          0.91851700       0.74797200       0.38993200
    95  H          0.58148300       0.24797200       0.11006800
    96  H          0.41851700       0.24797200       0.38993200
    97  C          0.86953110       0.17316150       0.77849100
    98  C          0.13046890       0.17316150       0.72150900
    99  C          0.36953110       0.67316150       0.77849100
   100  C          0.63046890       0.67316150       0.72150900
   101  C          0.13046890       0.82683850       0.22150900
   102  C          0.86953110       0.82683850       0.27849100
   103  C          0.63046890       0.32683850       0.22150900
   104  C          0.36953110       0.32683850       0.27849100
   105  H          0.91901700       0.11653700       0.78636400
   106  H          0.08098300       0.11653700       0.71363600
   107  H          0.41901700       0.61653700       0.78636400
   108  H          0.58098300       0.61653700       0.71363600
   109  H          0.08098300       0.88346300       0.21363600
   110  H          0.91901700       0.88346300       0.28636400
   111  H          0.58098300       0.38346300       0.21363600
   112  H          0.41901700       0.38346300       0.28636400
   113  C          0.79819100       0.17552120       0.70497900
   114  C          0.20180900       0.17552120       0.79502100
   115  C          0.29819100       0.67552120       0.70497900
   116  C          0.70180900       0.67552120       0.79502100
   117  C          0.20180900       0.82447880       0.29502100
   118  C          0.79819100       0.82447880       0.20497900
   119  C          0.70180900       0.32447880       0.29502100
   120  C          0.29819100       0.32447880       0.20497900
   121  H          0.79883600       0.12055200       0.66240600
   122  H          0.20116400       0.12055200       0.83759400
   123  H          0.29883600       0.62055200       0.66240600
   124  H          0.70116400       0.62055200       0.83759400
   125  H          0.20116400       0.87944800       0.33759400
   126  H          0.79883600       0.87944800       0.16240600
   127  H          0.70116400       0.37944800       0.33759400
   128  H          0.29883600       0.37944800       0.16240600
   129  C          0.52740100       0.17782110       0.60555800
   130  C          0.47259900       0.17782110       0.89444200
   131  C          0.02740100       0.67782110       0.60555800
   132  C          0.97259900       0.67782110       0.89444200
   133  C          0.47259900       0.82217890       0.39444200
   134  C          0.52740100       0.82217890       0.10555800
   135  C          0.97259900       0.32217890       0.39444200
   136  C          0.02740100       0.32217890       0.10555800
   137  C          0.54213130       0.07445140       0.63811140
   138  C          0.45786870       0.07445140       0.86188860
   139  C          0.04213130       0.57445140       0.63811140
   140  C          0.95786870       0.57445140       0.86188860
   141  C          0.45786870       0.92554860       0.36188860
   142  C          0.54213130       0.92554860       0.13811140
   143  C          0.95786870       0.42554860       0.36188860
   144  C          0.04213130       0.42554860       0.13811140
   145  H          0.61014300       0.05114100       0.65974800
   146  H          0.38985700       0.05114100       0.84025200
   147  H          0.11014300       0.55114100       0.65974800
   148  H          0.88985700       0.55114100       0.84025200
   149  H          0.38985700       0.94885900       0.34025200
   150  H          0.61014300       0.94885900       0.15974800
   151  H          0.88985700       0.44885900       0.34025200
   152  H          0.11014300       0.44885900       0.15974800
   153  C          0.45788140       0.00518140       0.63914150
   154  C          0.54211860       0.00518140       0.86085850
   155  C          0.95788140       0.50518140       0.63914150
   156  C          0.04211860       0.50518140       0.86085850
   157  C          0.54211860      -0.00518140       0.36085850
   158  C          0.45788140      -0.00518140       0.13914150
   159  C          0.04211860       0.49481860       0.36085850
   160  C          0.95788140       0.49481860       0.13914150
   161  H          0.46847100       0.93466900       0.66164000
   162  H          0.53152900       0.93466900       0.83836000
   163  H          0.96847100       0.43466900       0.66164000
   164  H          0.03152900       0.43466900       0.83836000
   165  H          0.53152900       0.06533100       0.33836000
   166  H          0.46847100       0.06533100       0.16164000
   167  H          0.03152900       0.56533100       0.33836000
   168  H          0.96847100       0.56533100       0.16164000
   169  C          0.35935110       0.03781120       0.60787100
   170  C          0.64064890       0.03781120       0.89212900
   171  C          0.85935110       0.53781120       0.60787100
   172  C          0.14064890       0.53781120       0.89212900
   173  C          0.64064890       0.96218880       0.39212900
   174  C          0.35935110       0.96218880       0.10787100
   175  C          0.14064890       0.46218880       0.39212900
   176  C          0.85935110       0.46218880       0.10787100
   177  H          0.30183700      -0.00987400       0.60874100
   178  H          0.69816300      -0.00987400       0.89125900
   179  H          0.80183700       0.49012600       0.60874100
   180  H          0.19816300       0.49012600       0.89125900
   181  H          0.69816300       0.00987400       0.39125900
   182  H          0.30183700       0.00987400       0.10874100
   183  H          0.19816300       0.50987400       0.39125900
   184  H          0.80183700       0.50987400       0.10874100
   185  C          0.34422110       0.13987120       0.57526100
   186  C          0.65577890       0.13987120       0.92473900
   187  C          0.84422110       0.63987120       0.57526100
   188  C          0.15577890       0.63987120       0.92473900
   189  C          0.65577890       0.86012880       0.42473900
   190  C          0.34422110       0.86012880       0.07526100
   191  C          0.15577890       0.36012880       0.42473900
   192  C          0.84422110       0.36012880       0.07526100
   193  H          0.27609500       0.16231800       0.55313500
   194  H          0.72390500       0.16231800       0.94686500
   195  H          0.77609500       0.66231800       0.55313500
   196  H          0.22390500       0.66231800       0.94686500
   197  H          0.72390500       0.83768200       0.44686500
   198  H          0.27609500       0.83768200       0.05313500
   199  H          0.22390500       0.33768200       0.44686500
   200  H          0.77609500       0.33768200       0.05313500
   201  C          0.42762110       0.21037120       0.57440100
   202  C          0.57237890       0.21037120       0.92559900
   203  C          0.92762110       0.71037120       0.57440100
   204  C          0.07237890       0.71037120       0.92559900
   205  C          0.57237890       0.78962880       0.42559900
   206  C          0.42762110       0.78962880       0.07440100
   207  C          0.07237890       0.28962880       0.42559900
   208  C          0.92762110       0.28962880       0.07440100
   209  H          0.41627700       0.28103400       0.55242900
   210  H          0.58372300       0.28103400       0.94757100
   211  H          0.91627700       0.78103400       0.55242900
   212  H          0.08372300       0.78103400       0.94757100
   213  H          0.58372300       0.71896600       0.44757100
   214  H          0.41627700       0.71896600       0.05242900
   215  H          0.08372300       0.21896600       0.44757100
   216  H          0.91627700       0.21896600       0.05242900
   217  O          0.43878800       0.50768900       0.61936700
   218  O          0.56121200       0.50768900       0.88063300
   219  O          0.93878800       0.00768900       0.61936700
   220  O          0.06121200       0.00768900       0.88063300
   221  O          0.56121200       0.49231100       0.38063300
   222  O          0.43878800       0.49231100       0.11936700
   223  O          0.06121200      -0.00768900       0.38063300
   224  O          0.93878800      -0.00768900       0.11936700
   225  H          0.48591300       0.46261400       0.60901300
   226  H          0.51408700       0.46261400       0.89098700
   227  H          0.98591300       0.96261400       0.60901300
   228  H          0.01408700       0.96261400       0.89098700
   229  H          0.51408700       0.53738600       0.39098700
   230  H          0.48591300       0.53738600       0.10901300
   231  H          0.01408700       0.03738600       0.39098700
   232  H          0.98591300       0.03738600       0.10901300
   233  O          0.35955800       0.48151800       0.54863700
   234  O          0.64044200       0.48151800       0.95136300
   235  O          0.85955800       0.98151800       0.54863700
   236  O          0.14044200       0.98151800       0.95136300
   237  O          0.64044200       0.51848200       0.45136300
   238  O          0.35955800       0.51848200       0.04863700
   239  O          0.14044200       0.01848200       0.45136300
   240  O          0.85955800       0.01848200       0.04863700
   241  H          0.37631500       0.52341400       0.50921000
   242  H          0.62368500       0.52341400       0.99079000
   243  H          0.87631500       0.02341400       0.50921000
   244  H          0.12368500       0.02341400       0.99079000
   245  H          0.62368500       0.47658600       0.49079000
   246  H          0.37631500       0.47658600       0.00921000
   247  H          0.12368500       0.97658600       0.49079000
   248  H          0.87631500       0.97658600       0.00921000
