data_QAKGUG
_symmetry_space_group_name_H-M    'P1'
_symmetry_Int_Tables_number       1
loop_
_symmetry_equiv_pos_site_id
_symmetry_equiv_pos_as_xyz
1 x,y,z
_cell_length_a                   3.818001
_cell_length_b                   20.81608
_cell_length_c                   21.44208
_cell_angle_alpha                90.0
_cell_angle_beta                 90.0
_cell_angle_gamma                90.0
loop_
_atom_site_label
_atom_site_type_symbol
_atom_site_fract_x
_atom_site_fract_y
_atom_site_fract_z
     1  O          0.21915000       0.03522700       0.55396700
     2  O          0.28085000       0.96477300       0.05396700
     3  O          0.71915000       0.46477300       0.44603300
     4  O          0.78085000       0.53522700       0.94603300
     5  O          0.84334000       0.14493900       0.57670800
     6  O          0.65666000       0.85506100       0.07670800
     7  O          0.34334000       0.35506100       0.42329200
     8  O          0.15666000       0.64493900       0.92329200
     9  O          0.18957000       0.21912800       0.54543900
    10  O          0.31043000       0.78087200       0.04543900
    11  O          0.68957000       0.28087200       0.45456100
    12  O          0.81043000       0.71912800       0.95456100
    13  O          0.23909000       0.92426800       0.48892900
    14  O          0.26091000       0.07573200       0.98892900
    15  O          0.73909000       0.57573200       0.51107100
    16  O          0.76091000       0.42426800       0.01107100
    17  O          0.55698000       0.92982100       0.40721100
    18  O          0.94302000       0.07017900       0.90721100
    19  O          0.05698000       0.57017900       0.59278900
    20  O          0.44302000       0.42982100       0.09278900
    21  O          0.28121100       0.20386110       0.31429100
    22  O          0.21878900       0.79613890       0.81429100
    23  O          0.78121100       0.29613890       0.68570900
    24  O          0.71878900       0.70386110       0.18570900
    25  O          0.48591000       0.11533120       0.27852900
    26  O          0.01409000       0.88466880       0.77852900
    27  O         -0.01409000       0.38466880       0.72147100
    28  O          0.51409000       0.61533120       0.22147100
    29  N          0.05905000       0.16612900       0.54037900
    30  N          0.44095000       0.83387100       0.04037900
    31  N          0.55905000       0.33387100       0.45962100
    32  N          0.94095000       0.66612900       0.95962100
    33  N          0.36399000       0.14743120       0.32037100
    34  N          0.13601000       0.85256880       0.82037100
    35  N          0.86399000       0.35256880       0.67962900
    36  N          0.63601000       0.64743120       0.17962900
    37  N          0.37767000       0.95481900       0.44756900
    38  N          0.12233000       0.04518100       0.94756900
    39  N          0.87767000       0.54518100       0.55243100
    40  N          0.62233000       0.45481900       0.05243100
    41  C          0.22926000       0.05863100       0.50031900
    42  C          0.27074000       0.94136900       0.00031900
    43  C          0.72926000       0.44136900       0.49968100
    44  C          0.77074000       0.55863100      -0.00031900
    45  C          0.16506000       0.12594100       0.48771900
    46  C          0.33494000       0.87405900       0.98771900
    47  C          0.66506000       0.37405900       0.51228100
    48  C          0.83494000       0.62594100       0.01228100
    49  C          0.20787000       0.15485100       0.43161100
    50  C          0.29213000       0.84514900       0.93161100
    51  C          0.70787000       0.34514900       0.56838900
    52  C          0.79213000       0.65485100       0.06838900
    53  H          0.16860000       0.19870000       0.42700000
    54  H          0.33140000       0.80130000       0.92700000
    55  H          0.66860000       0.30130000       0.57300000
    56  H          0.83140000       0.69870000       0.07300000
    57  C          0.31128000       0.11772110       0.38114100
    58  C          0.18872000       0.88227890       0.88114100
    59  C          0.81128000       0.38227890       0.61885900
    60  C          0.68872000       0.61772110       0.11885900
    61  C          0.36987000       0.05261110       0.38734100
    62  C          0.13013000       0.94738890       0.88734100
    63  C          0.86987000       0.44738890       0.61265900
    64  C          0.63013000       0.55261110       0.11265900
    65  H          0.44050000       0.02840000       0.35320000
    66  H          0.05950000       0.97160000       0.85320000
    67  H          0.94050000       0.47160000       0.64680000
    68  H          0.55950000       0.52840000       0.14680000
    69  C          0.32297000       0.02395100       0.44446100
    70  C          0.17703000       0.97604900       0.94446100
    71  C          0.82297000       0.47604900       0.55553900
    72  C          0.67703000       0.52395100       0.05553900
    73  O          0.72287000       0.95183900       0.60361100
    74  O          0.77713000       0.04816100       0.10361100
    75  O          0.22287000       0.54816100       0.39638900
    76  O          0.27713000       0.45183900       0.89638900
    77  H          0.56050000       0.97920000       0.58770000
    78  H          0.93950000       0.02080000       0.08770000
    79  H          0.06050000       0.52080000       0.41230000
    80  H          0.43950000       0.47920000       0.91230000
    81  H          0.92120000       0.97400000       0.58330000
    82  H          0.57880000       0.02600000       0.08330000
    83  H          0.42120000       0.52600000       0.41670000
    84  H          0.07880000       0.47400000       0.91670000
    85  N          0.58157000       0.82430100       0.61111110
    86  N          0.91843000       0.17569900       0.11111110
    87  N          0.08157000       0.67569900       0.38888890
    88  N          0.41843000       0.32430100       0.88888890
    89  N          0.55517000       0.73058100       0.65339100
    90  N          0.94483000       0.26941900       0.15339100
    91  N          0.05517000       0.76941900       0.34660900
    92  N          0.44483000       0.23058100       0.84660900
    93  H          0.57420000       0.69990000       0.68000000
    94  H          0.92580000       0.30010000       0.18000000
    95  H          0.07420000       0.80010000       0.32000000
    96  H          0.42580000       0.19990000       0.82000000
    97  C          0.44128000       0.78433120       0.56804120
    98  C          0.05872000       0.21566880       0.06804120
    99  C          0.94128000       0.71566880       0.43195880
   100  C          0.55872000       0.28433120       0.93195880
   101  H          0.37110000       0.79520000       0.52790000
   102  H          0.12890000       0.20480000       0.02790000
   103  H          0.87110000       0.70480000       0.47210000
   104  H          0.62890000       0.29520000       0.97210000
   105  C          0.42288000       0.72631120       0.59449120
   106  C          0.07712000       0.27368880       0.09449120
   107  C          0.92288000       0.77368880       0.40550880
   108  C          0.57712000       0.22631120       0.90550880
   109  H          0.33480000       0.68930000       0.57590000
   110  H          0.16520000       0.31070000       0.07590000
   111  H          0.83480000       0.81070000       0.42410000
   112  H          0.66520000       0.18930000       0.92410000
   113  C          0.64709000       0.79029140       0.66155120
   114  C          0.85291000       0.20970860       0.16155120
   115  C          0.14709000       0.70970860       0.33844880
   116  C          0.35291000       0.29029140       0.83844880
   117  H          0.74530000       0.80660000       0.69790000
   118  H          0.75470000       0.19340000       0.19790000
   119  H          0.24530000       0.69340000       0.30210000
   120  H          0.25470000       0.30660000       0.80210000
   121  H          0.64130000       0.86800000       0.60860000
   122  H          0.85870000       0.13200000       0.10860000
   123  H          0.14130000       0.63200000       0.39140000
   124  H          0.35870000       0.36800000       0.89140000
   125  N          0.61237000       0.63572110       0.73624900
   126  N          0.88763000       0.36427890       0.23624900
   127  N          0.11237000       0.86427890       0.26375100
   128  N          0.38763000       0.13572110       0.76375100
   129  N          0.70468000       0.58105110       0.82023900
   130  N          0.79532000       0.41894890       0.32023900
   131  N          0.20468000       0.91894890       0.17976100
   132  N          0.29532000       0.08105110       0.67976100
   133  C          0.51749000       0.57373150       0.72587120
   134  C         -0.01749000       0.42626850       0.22587120
   135  C          0.01749000       0.92626850       0.27412880
   136  C          0.48251000       0.07373150       0.77412880
   137  H          0.42860000       0.55770000       0.68860000
   138  H          0.07140000       0.44230000       0.18860000
   139  H          0.92860000       0.94230000       0.31140000
   140  H          0.57140000       0.05770000       0.81140000
   141  C          0.57171000       0.53967150       0.77749120
   142  C          0.92829000       0.46032850       0.27749120
   143  C          0.07171000       0.96032850       0.22250880
   144  C          0.42829000       0.03967150       0.72250880
   145  H          0.52740000       0.49610000       0.78310000
   146  H         -0.02740000       0.50390000       0.28310000
   147  H          0.02740000       0.00390000       0.21690000
   148  H          0.47260000      -0.00390000       0.71690000
   149  C          0.72691000       0.63802140       0.79433120
   150  C          0.77309000       0.36197860       0.29433120
   151  C          0.22691000       0.86197860       0.20566880
   152  C          0.27309000       0.13802140       0.70566880
   153  H          0.81110000       0.67470000       0.81400000
   154  H          0.68890000       0.32530000       0.31400000
   155  H          0.31110000       0.82530000       0.18600000
   156  H          0.18890000       0.17470000       0.68600000
   157  H          0.75230000       0.57180000       0.85930000
   158  H          0.74770000       0.42820000       0.35930000
   159  H          0.25230000       0.92820000       0.14070000
   160  H          0.24770000       0.07180000       0.64070000
