data_QANKUN
_symmetry_space_group_name_H-M    'P1'
_symmetry_Int_Tables_number       1
loop_
_symmetry_equiv_pos_site_id
_symmetry_equiv_pos_as_xyz
1 x,y,z
_cell_length_a                   9.93293
_cell_length_b                   12.37484
_cell_length_c                   16.53635
_cell_angle_alpha                86.16893
_cell_angle_beta                 76.22643
_cell_angle_gamma                80.93683
loop_
_atom_site_label
_atom_site_type_symbol
_atom_site_fract_x
_atom_site_fract_y
_atom_site_fract_z
     1  Cl         0.89673600       0.88181400       0.36570300
     2  Cl         0.10326400       0.11818600       0.63429700
     3  Cl         0.02060500       0.64889400       0.41054300
     4  Cl         0.97939500       0.35110600       0.58945700
     5  Cl         0.04269500       0.83902500       0.08057300
     6  Cl         0.95730500       0.16097500       0.91942700
     7  Cl         0.18723500       0.60191500       0.09198300
     8  Cl         0.81276500       0.39808500       0.90801700
     9  P          0.30796400       0.85005300       0.23555200
    10  P          0.69203600       0.14994700       0.76444800
    11  P          0.06343400       0.76669300       0.32166200
    12  P          0.93656600       0.23330700       0.67833800
    13  P          0.15109400       0.74081300       0.15466200
    14  P          0.84890600       0.25918700       0.84533800
    15  N          0.20163120       0.80793110       0.32270700
    16  N          0.79836880       0.19206890       0.67729300
    17  N          0.03804120       0.72359110       0.23883800
    18  N          0.96195880       0.27640890       0.76116200
    19  N          0.29088130       0.77988120       0.15560700
    20  N          0.70911870       0.22011880       0.84439300
    21  N          0.60171110       0.80312900       0.20588700
    22  N          0.39828890       0.19687100       0.79411300
    23  N          0.51362120       0.71292900       0.31648700
    24  N          0.48637880       0.28707100       0.68351300
    25  C          0.47989130       0.77615100       0.25239800
    26  C          0.52010870       0.22384900       0.74760200
    27  C          0.71196140       0.75734120       0.24002900
    28  C          0.28803860       0.24265880       0.75997100
    29  H          0.80810000       0.76400000       0.21880000
    30  H          0.19190000       0.23600000       0.78120000
    31  C          0.65678150       0.70128130       0.30932900
    32  C          0.34321850       0.29871870       0.69067100
    33  H          0.70690000       0.66100000       0.34660000
    34  H          0.29310000       0.33900000       0.65340000
    35  C          0.62149140       0.86600110       0.12754800
    36  C          0.37850860       0.13399890       0.87245200
    37  C          0.64432150       0.80842120       0.05457900
    38  C          0.35567850       0.19157880       0.94542100
    39  C          0.67602170       0.86841140       0.97976100
    40  C          0.32397830       0.13158860       0.02023900
    41  H          0.69290000       0.83260000       0.92850000
    42  H          0.30710000       0.16740000       0.07150000
    43  C          0.68333180       0.97895150       0.97893900
    44  C          0.31666820       0.02104850       0.02106100
    45  H          0.70550000       0.01810000       0.92730000
    46  H          0.29450000       0.98190000       0.07270000
    47  C          0.65881180       0.03308130       0.05244100
    48  C          0.34118820       0.96691870       0.94755900
    49  H          0.66350000       0.10930000       0.05060000
    50  H          0.33650000       0.89070000       0.94940000
    51  C          0.62730150       0.97782120       0.12941900
    52  C          0.37269850       0.02217880       0.87058100
    53  C          0.64068180       0.68590130       0.05582100
    54  C          0.35931820       0.31409870       0.94417900
    55  H          0.58110000       0.66540000       0.11080000
    56  H          0.41890000       0.33460000       0.88920000
    57  C          0.57592000       0.65374160       0.98767880
    58  C          0.42408000       0.34625840       0.01232120
    59  H          0.58460000       0.57380000       0.98700000
    60  H          0.41540000       0.42620000       0.01300000
    61  H          0.62480000       0.68150000       0.93350000
    62  H          0.37520000       0.31850000       0.06650000
    63  H          0.47660000       0.68530000      -0.00130000
    64  H          0.52340000       0.31470000       0.00130000
    65  C          0.78802000       0.62168160       0.04884130
    66  C          0.21198000       0.37831840       0.95115870
    67  H          0.83200000       0.64880000       0.08910000
    68  H          0.16800000       0.35120000       0.91090000
    69  H          0.84470000       0.63140000      -0.00770000
    70  H          0.15530000       0.36860000       0.00770000
    71  H          0.78140000       0.54380000       0.06070000
    72  H          0.21860000       0.45620000       0.93930000
    73  C          0.60352180       0.03804130       0.20991100
    74  C          0.39647820       0.96195870       0.79008900
    75  H          0.58120000       0.98440000       0.25740000
    76  H          0.41880000       0.01560000       0.74260000
    77  C          0.47942000       0.13016160       0.21816130
    78  C          0.52058000       0.86983840       0.78183870
    79  H          0.39510000       0.09980000       0.21570000
    80  H          0.60490000       0.90020000       0.78430000
    81  H          0.49920000       0.18430000       0.17250000
    82  H          0.50080000       0.81570000       0.82750000
    83  H          0.46420000       0.16550000       0.27150000
    84  H          0.53580000       0.83450000       0.72850000
    85  C          0.73602000       0.08208180       0.21571140
    86  C          0.26398000       0.91791820       0.78428860
    87  H          0.81460000       0.02210000       0.20890000
    88  H          0.18540000       0.97790000       0.79110000
    89  H          0.72150000       0.11420000       0.27030000
    90  H          0.27850000       0.88580000       0.72970000
    91  H          0.75690000       0.13820000       0.17170000
    92  H          0.24310000       0.86180000       0.82830000
    93  C          0.42564140       0.65528110       0.38270800
    94  C          0.57435860       0.34471890       0.61729200
    95  C          0.38154160       0.70272120       0.46045900
    96  C          0.61845840       0.29727880       0.53954100
    97  C          0.31059180       0.64013150       0.52534100
    98  C          0.68940820       0.35986850       0.47465900
    99  H          0.27800000       0.66920000       0.57940000
   100  H          0.72200000       0.33080000       0.42060000
   101  C          0.28726180       0.53686150       0.51190110
   102  C          0.71273820       0.46313850       0.48809890
   103  H          0.24050000       0.49500000       0.55710000
   104  H          0.75950000       0.50500000       0.44290000
   105  C          0.33069190       0.49321140       0.43380110
   106  C          0.66930810       0.50678860       0.56619890
   107  H          0.31260000       0.42200000       0.42590000
   108  H          0.68740000       0.57800000       0.57410000
   109  C          0.40079170       0.55208120       0.36627100
   110  C          0.59920830       0.44791880       0.63372900
   111  C          0.40689190       0.81690140       0.47487100
   112  C          0.59310810       0.18309860       0.52512900
   113  H          0.44410000       0.85120000       0.41920000
   114  H          0.55590000       0.14880000       0.58080000
   115  C          0.51762000       0.81312180       0.52595150
   116  C          0.48238000       0.18687820       0.47404850
   117  H          0.60160000       0.76330000       0.50040000
   118  H          0.39840000       0.23670000       0.49960000
   119  H          0.48020000       0.78700000       0.58290000
   120  H          0.51980000       0.21300000       0.41710000
   121  H          0.54170000       0.88670000       0.52720000
   122  H          0.45830000       0.11330000       0.47280000
   123  C          0.27102000       0.88873170       0.51556130
   124  C          0.72898000       0.11126830       0.48443870
   125  H          0.20400000       0.89350000       0.48000000
   126  H          0.79600000       0.10650000       0.52000000
   127  H          0.29060000       0.96220000       0.52270000
   128  H          0.70940000       0.03780000       0.47730000
   129  H          0.23110000       0.85660000       0.57010000
   130  H          0.76890000       0.14340000       0.42990000
   131  C          0.44582000       0.50670140       0.27905110
   132  C          0.55418000       0.49329860       0.72094890
   133  H          0.45500000       0.57030000       0.23860000
   134  H          0.54500000       0.42970000       0.76140000
   135  C          0.33703000       0.44385190       0.25985160
   136  C          0.66297000       0.55614810       0.74014840
   137  H          0.24560000       0.49050000       0.26970000
   138  H          0.75440000       0.50950000       0.73030000
   139  H          0.33030000       0.37800000       0.29610000
   140  H          0.66970000       0.62200000       0.70390000
   141  H          0.36530000       0.42270000       0.20150000
   142  H          0.63470000       0.57730000       0.79850000
   143  C          0.58682000       0.43522000       0.26513150
   144  C          0.41318000       0.56478000       0.73486850
   145  H          0.65730000       0.47770000       0.27370000
   146  H          0.34270000       0.52230000       0.72630000
   147  H          0.61310000       0.40910000       0.20810000
   148  H          0.38690000       0.59090000       0.79190000
   149  H          0.58150000       0.37240000       0.30460000
   150  H          0.41850000       0.62760000       0.69540000
   151  C          0.06932000       0.21182000       0.31686150
   152  C          0.93068000       0.78818000       0.68313850
   153  C          0.06202000       0.17182000       0.24249160
   154  C          0.93798000       0.82818000       0.75750840
   155  H          0.08820000       0.09570000       0.23260000
   156  H          0.91180000       0.90430000       0.76740000
   157  C          0.01723000       0.24093000       0.18233180
   158  C          0.98277000       0.75907000       0.81766820
   159  H          0.01220000       0.21210000       0.13140000
   160  H          0.98780000       0.78790000       0.86860000
   161  C          0.97917000       0.35213000       0.19542000
   162  C          0.02083000       0.64787000       0.80458000
   163  H          0.94920000       0.40000000       0.15370000
   164  H          0.05080000       0.60000000       0.84630000
   165  C          0.98557000       0.39163000       0.26912000
   166  C          0.01443000       0.60837000       0.73088000
   167  H          0.95910000       0.46760000       0.27900000
   168  H          0.04090000       0.53240000       0.72100000
   169  C          0.03003000       0.32272000       0.32946180
   170  C          0.96997000       0.67728000       0.67053820
   171  H          0.03370000       0.35180000       0.38050000
   172  H          0.96630000       0.64820000       0.61950000
   173  C          0.11933000       0.13743000       0.38172180
   174  C          0.88067000       0.86257000       0.61827820
   175  H          0.11100000       0.17870000       0.43160000
   176  H          0.88900000       0.82130000       0.56840000
   177  H          0.21750000       0.10640000       0.36030000
   178  H          0.78250000       0.89360000       0.63970000
   179  H          0.06220000       0.07800000       0.39590000
   180  H          0.93780000       0.92200000       0.60410000
