data_QAPNAZ
_symmetry_space_group_name_H-M    'P1'
_symmetry_Int_Tables_number       1
loop_
_symmetry_equiv_pos_site_id
_symmetry_equiv_pos_as_xyz
1 x,y,z
_cell_length_a                   8.35153
_cell_length_b                   11.42997
_cell_length_c                   11.93986
_cell_angle_alpha                90.0
_cell_angle_beta                 98.6634
_cell_angle_gamma                90.0
loop_
_atom_site_label
_atom_site_type_symbol
_atom_site_fract_x
_atom_site_fract_y
_atom_site_fract_z
     1  N          0.21644000       0.53874000       0.48083000
     2  N          0.78356000       0.03874000       0.51917000
     3  N          0.93147000       0.53854000       0.66483000
     4  N          0.06853000       0.03854000       0.33517000
     5  O          0.14104000       0.54674000       0.38592000
     6  O          0.85896000       0.04674000       0.61408000
     7  O          0.36453000       0.53184000       0.50252000
     8  O          0.63547000       0.03184000       0.49748000
     9  N          0.97027000       0.54124000       0.56053000
    10  N          0.02973000       0.04124000       0.43947000
    11  C          0.13024000       0.53595000       0.57603000
    12  C          0.86976000       0.03595000       0.42397000
    13  C          0.19594000       0.53005000       0.68823000
    14  C          0.80406000       0.03005000       0.31177000
    15  O          0.42224000       0.42274000       0.74584000
    16  O          0.57776000       0.92274000       0.25416000
    17  O          0.93826000       0.52145000       0.90133000
    18  O          0.06174000       0.02145000       0.09867000
    19  O          0.19964000       0.51634000       0.92123000
    20  O          0.80036000       0.01634000       0.07877000
    21  N          0.06634000       0.52414000       0.86543000
    22  N          0.93366000       0.02414000       0.13457000
    23  N          0.36554000       0.52065000       0.73923000
    24  N          0.63446000       0.02065000       0.26077000
    25  O          0.43744000       0.60964000       0.76724000
    26  O          0.56256000       0.10964000       0.23276000
    27  C          0.06484000       0.53155000       0.74443000
    28  C          0.93516000       0.03155000       0.25557000
    29  C          0.76006000       0.54336000       0.67834000
    30  C          0.23994000       0.04336000       0.32166000
    31  H          0.73010000       0.62290000       0.69020000
    32  H          0.26990000       0.12290000       0.30980000
    33  H          0.74280000       0.49670000       0.74230000
    34  H          0.25720000      -0.00330000       0.25770000
    35  H          0.69510000       0.51350000       0.61120000
    36  H          0.30490000       0.01350000       0.38880000
    37  N          0.46904000       0.45483000       0.21013000
    38  N          0.53096000       0.95483000       0.78987000
    39  O          0.19663000       0.43893000       0.16933000
    40  O          0.80337000       0.93893000       0.83067000
    41  C          0.60804000       0.60474000       0.32843000
    42  C          0.39196000       0.10474000       0.67157000
    43  H          0.58230000       0.62750000       0.40280000
    44  H          0.41770000       0.12750000       0.59720000
    45  N          0.79174000       0.71444000       0.02913000
    46  N          0.20826000       0.21444000       0.97087000
    47  N          0.83474000       0.73944000       0.37283000
    48  N          0.16526000       0.23944000       0.62717000
    49  O          0.37844000       0.76033000       0.36203000
    50  O          0.62156000       0.26033000       0.63797000
    51  O          0.94264000       0.29383000       0.32393000
    52  O          0.05736000       0.79383000       0.67607000
    53  O          0.76964000       0.77254000       0.45203000
    54  O          0.23036000       0.27254000       0.54797000
    55  O          0.95444000       0.78173000       0.34223000
    56  O          0.04556000       0.28173000       0.65777000
    57  N          0.31674000       0.40724000       0.23154000
    58  N          0.68326000       0.90724000       0.76846000
    59  N          0.35984000       0.71864000       0.26704000
    60  N          0.64016000       0.21864000       0.73296000
    61  O          0.32654000       0.33504000       0.30643000
    62  O          0.67346000       0.83504000       0.69357000
    63  O          0.71683000       0.71414000       0.93407000
    64  O          0.28317000       0.21414000       0.06593000
    65  C          0.59274000       0.46884000       0.31113000
    66  C          0.40726000       0.96884000       0.68887000
    67  H          0.55920000       0.43070000       0.37740000
    68  H          0.44080000       0.93070000       0.62260000
    69  N          0.77204000       0.63883000       0.31633000
    70  N          0.22796000       0.13883000       0.68367000
    71  O          0.91874000       0.76234000       0.06193000
    72  O          0.08126000       0.26234000       0.93807000
    73  N          0.74424000       0.42334000       0.28793000
    74  N          0.25576000       0.92334000       0.71207000
    75  N          0.49123000       0.65414000       0.23753000
    76  N          0.50877000       0.15414000       0.76247000
    77  N          0.81555000       0.32944000       0.34933000
    78  N          0.18445000       0.82944000       0.65067000
    79  O          0.24474000       0.73034000       0.19333000
    80  O          0.75526000       0.23034000       0.80667000
    81  O          0.74614000       0.29234000       0.42343000
    82  O          0.25386000       0.79234000       0.57657000
    83  C          0.45894000       0.56614000       0.14913000
    84  C          0.54106000       0.06614000       0.85087000
    85  H          0.35220000       0.57710000       0.10340000
    86  H          0.64780000       0.07710000       0.89660000
    87  C          0.81394000       0.47364000       0.19643000
    88  C          0.18606000       0.97364000       0.80357000
    89  H          0.91960000       0.43880000       0.19070000
    90  H          0.08040000       0.93880000       0.80930000
    91  N          0.70474000       0.46633000       0.08853000
    92  N          0.29526000       0.96633000       0.91147000
    93  N          0.71543000       0.65923000       0.11453000
    94  N          0.28457000       0.15923000       0.88547000
    95  O          0.73125000       0.27394000       0.08154000
    96  O          0.26875000       0.77394000       0.91846000
    97  C          0.82694000       0.60974000       0.21153000
    98  C          0.17306000       0.10974000       0.78847000
    99  H          0.93820000       0.63660000       0.21110000
   100  H          0.06180000       0.13660000       0.78890000
   101  N          0.65095000       0.35804000       0.04664000
   102  N          0.34905000       0.85804000       0.95336000
   103  C          0.59954000       0.56874000       0.07323000
   104  C          0.40046000       0.06874000       0.92677000
   105  H          0.55600000       0.58060000      -0.00680000
   106  H          0.44400000       0.08060000       0.00680000
   107  O          0.52894000       0.36004000       0.97547000
   108  O          0.47106000       0.86004000       0.02453000
