data_QARGIZ
_symmetry_space_group_name_H-M    'P1'
_symmetry_Int_Tables_number       1
loop_
_symmetry_equiv_pos_site_id
_symmetry_equiv_pos_as_xyz
1 x,y,z
_cell_length_a                   9.5171
_cell_length_b                   11.7412
_cell_length_c                   7.0831
_cell_angle_alpha                106.212
_cell_angle_beta                 92.682
_cell_angle_gamma                106.322
loop_
_atom_site_label
_atom_site_type_symbol
_atom_site_fract_x
_atom_site_fract_y
_atom_site_fract_z
     1  I          0.23551000       0.28581000       0.70551000
     2  I          0.76449000       0.71419000       0.29449000
     3  I          0.33411000       0.07521000       0.58901000
     4  I          0.66589000       0.92479000       0.41099000
     5  I          0.09601000       0.01781000       0.16261000
     6  I          0.90399000       0.98219000       0.83739000
     7  N          0.14474000       0.46613000       0.77645000
     8  N          0.85526000       0.53387000       0.22355000
     9  C          0.23935000       0.58144000       0.79606000
    10  C          0.76065000       0.41856000       0.20394000
    11  C          0.39475000       0.60475000       0.83057000
    12  C          0.60525000       0.39525000       0.16943000
    13  C          0.48826000       0.71985000       0.85017000
    14  C          0.51174000       0.28015000       0.14983000
    15  C          0.43496000       0.81885000       0.83687000
    16  C          0.56504000       0.18115000       0.16313000
    17  C          0.28806000       0.79995000       0.80617000
    18  C          0.71194000       0.20005000       0.19383000
    19  C          0.18505000       0.68154000       0.78346000
    20  C          0.81495000       0.31846000       0.21654000
    21  C          0.03436000       0.65895000       0.75177000
    22  C          0.96564000       0.34105000       0.24823000
    23  C          0.93555000       0.54284000       0.73646000
    24  C          0.06445000       0.45716000       0.26354000
    25  C          0.77814000       0.51655000       0.70427000
    26  C          0.22186000       0.48345000       0.29573000
    27  C          0.68795000       0.40095000       0.68987000
    28  C          0.31205000       0.59905000       0.31013000
    29  C          0.74735000       0.30775000       0.70987000
    30  C          0.25265000       0.69225000       0.29013000
    31  C          0.89645000       0.32775000       0.73846000
    32  C          0.10355000       0.67225000       0.26154000
    33  C         -0.00445000       0.44694000       0.75146000
    34  C          0.00445000       0.55306000       0.24854000
    35  H          0.42565200       0.54774700       0.84737000
    36  H          0.57434800       0.45225300       0.15263000
    37  H          0.58765700       0.72884500       0.86587000
    38  H          0.41234300       0.27115500       0.13413000
    39  H          0.50386800       0.89235900       0.84888900
    40  H          0.49613200       0.10764100       0.15111100
    41  H          0.26114900       0.86874400       0.80746600
    42  H          0.73885100       0.13125600       0.19253400
    43  H          0.00165800       0.72225000       0.73347500
    44  H         -0.00165800       0.27775000       0.26652500
    45  H          0.73875000       0.57854300       0.68736500
    46  H          0.26125000       0.42145700       0.31263500
    47  H          0.58594500       0.38264400       0.65067000
    48  H          0.41405500       0.61735600       0.34933000
    49  H          0.68224700       0.22824600       0.70786700
    50  H          0.31775300       0.77175400       0.29213300
    51  H          0.93755100       0.26334300       0.75036400
    52  H          0.06244900       0.73665700       0.24963600
