data_QARGUL
_symmetry_space_group_name_H-M    'P1'
_symmetry_Int_Tables_number       1
loop_
_symmetry_equiv_pos_site_id
_symmetry_equiv_pos_as_xyz
1 x,y,z
_cell_length_a                   6.9674
_cell_length_b                   9.0883
_cell_length_c                   9.6362
_cell_angle_alpha                83.132
_cell_angle_beta                 88.054
_cell_angle_gamma                76.114
loop_
_atom_site_label
_atom_site_type_symbol
_atom_site_fract_x
_atom_site_fract_y
_atom_site_fract_z
     1  I          0.42141000       0.62281000       0.40511000
     2  I          0.57859000       0.37719000       0.59489000
     3  Cl         0.17572000       0.29551000       0.86279000
     4  Cl         0.82428000       0.70449000       0.13721000
     5  N          0.25864000       0.88853000       0.19513000
     6  N          0.74136000       0.11147000       0.80487000
     7  C          0.21455000       0.03204000       0.22953000
     8  C          0.78545000       0.96796000       0.77047000
     9  C          0.19057000       0.05215000       0.37504000
    10  C          0.80943000       0.94785000       0.62496000
    11  C          0.14278000       0.19435000       0.41495000
    12  C          0.85722000       0.80565000       0.58505000
    13  C          0.11387000       0.32485000       0.31625000
    14  C          0.88613000       0.67515000       0.68375000
    15  C          0.13496000       0.31105000       0.17825000
    16  C          0.86504000       0.68895000       0.82175000
    17  C          0.18535000       0.16424000       0.13074000
    18  C          0.81465000       0.83576000       0.86926000
    19  C          0.20925000       0.14024000      -0.01134000
    20  C          0.79075000       0.85976000       0.01134000
    21  C          0.25845000      -0.00686000       0.94937000
    22  C          0.74155000       0.00686000       0.05063000
    23  C          0.28666000       0.96086000       0.80786000
    24  C          0.71334000       0.03914000       0.19214000
    25  C          0.33216000       0.81546000       0.77685000
    26  C          0.66784000       0.18454000       0.22315000
    27  C          0.34856000       0.69205000       0.88415000
    28  C          0.65144000       0.30795000       0.11585000
    29  C          0.32356000       0.71784000       0.02064000
    30  C          0.67644000       0.28216000       0.97936000
    31  C          0.27915000       0.87004000       0.05773000
    32  C          0.72085000       0.12996000       0.94227000
    33  H          0.21816800       0.95105400       0.44694700
    34  H          0.78183200       0.04894600       0.55305300
    35  H          0.13647900       0.20216000       0.50065700
    36  H          0.86352100       0.79784000       0.49934300
    37  H          0.08077600       0.42106300       0.34405100
    38  H          0.91922400       0.57893700       0.65594900
    39  H          0.10935300       0.39564400       0.11013600
    40  H          0.89064700       0.60435600       0.88986400
    41  H          0.28507400       0.05005900       0.73885100
    42  H          0.71492600       0.94994100       0.26114900
    43  H          0.35617400       0.79116000       0.69454500
    44  H          0.64382600       0.20884000       0.30545500
    45  H          0.38397600       0.58646500       0.86254700
    46  H          0.61602400       0.41353500       0.13745300
    47  H          0.33305800       0.64624900       0.08614100
    48  H          0.66694200       0.35375100       0.91385900
