data_QARWUC
_symmetry_space_group_name_H-M    'P1'
_symmetry_Int_Tables_number       1
loop_
_symmetry_equiv_pos_site_id
_symmetry_equiv_pos_as_xyz
1 x,y,z
_cell_length_a                   9.86639
_cell_length_b                   10.79489
_cell_length_c                   12.59579
_cell_angle_alpha                108.4467
_cell_angle_beta                 101.8957
_cell_angle_gamma                93.5067
loop_
_atom_site_label
_atom_site_type_symbol
_atom_site_fract_x
_atom_site_fract_y
_atom_site_fract_z
     1  N          0.38482110       0.87645890       0.03664900
     2  N          0.61517890       0.12354110       0.96335100
     3  C          0.31920120       0.83806890       0.10549100
     4  C          0.68079880       0.16193110       0.89450900
     5  C          0.37903140       0.76575870       0.17367110
     6  C          0.62096860       0.23424130       0.82632890
     7  H          0.32850000       0.74230000       0.22350000
     8  H          0.67150000       0.25770000       0.77650000
     9  C          0.50900150       0.73258850       0.16875130
    10  C          0.49099850       0.26741150       0.83124870
    11  H          0.55130000       0.68350000       0.21530000
    12  H          0.44870000       0.31650000       0.78470000
    13  C          0.57865150       0.77129850       0.09725130
    14  C          0.42134850       0.22870150       0.90274870
    15  H          0.67070000       0.74870000       0.09410000
    16  H          0.32930000       0.25130000       0.90590000
    17  C          0.51374140       0.84265860       0.03530120
    18  C          0.48625860       0.15734140       0.96469880
    19  H          0.55800000       0.87190000       0.98470000
    20  H          0.44200000       0.12810000       0.01530000
    21  N          0.18774100       0.86964890       0.11231900
    22  N          0.81225900       0.13035110       0.88768100
    23  H          0.15110000       0.84520000       0.16360000
    24  H          0.84890000       0.15480000       0.83640000
    25  C          0.09888120       0.93632890       0.05413900
    26  C          0.90111880       0.06367110       0.94586100
    27  C          0.97497870       0.96193880       0.08815100
    28  C          0.02502130       0.03806120       0.91184900
    29  H          0.95680000       0.93490000       0.15010000
    30  H          0.04320000       0.06510000       0.84990000
    31  C          0.12269130       0.97593880       0.96375900
    32  C          0.87730870       0.02406120       0.03624100
    33  H          0.20870000       0.96220000       0.94020000
    34  H          0.79130000       0.03780000       0.05980000
    35  N          0.55680130       0.41239110       0.62061100
    36  N          0.44319870       0.58760890       0.37938900
    37  C          0.68130160       0.48825130       0.66580110
    38  C          0.31869840       0.51174870       0.33419890
    39  C          0.71472000       0.57103160       0.78302130
    40  C          0.28528000       0.42896840       0.21697870
    41  H          0.64180000       0.56970000       0.82280000
    42  H          0.35820000       0.43030000       0.17720000
    43  C          0.83872000       0.65087170       0.82878140
    44  C          0.16128000       0.34912830       0.17121860
    45  H          0.86350000       0.70510000       0.90860000
    46  H          0.13650000       0.29490000       0.09140000
    47  C          0.93732000       0.65231160       0.76230160
    48  C          0.06268000       0.34768840       0.23769840
    49  H          0.02570000       0.70750000       0.79740000
    50  H          0.97430000       0.29250000       0.20260000
    51  C          0.91074170       0.57463150       0.65086150
    52  C          0.08925830       0.42536850       0.34913850
    53  H          0.97620000       0.56930000       0.60330000
    54  H          0.02380000       0.43070000       0.39670000
    55  C          0.78196150       0.49000130       0.59884120
    56  C          0.21803850       0.50999870       0.40115880
    57  N          0.75682130       0.41367110       0.48785100
    58  N          0.24317870       0.58632890       0.51214900
    59  C          0.63189160       0.33818120       0.44287110
    60  C          0.36810840       0.66181880       0.55712890
    61  C          0.59752000       0.25571150       0.32499130
    62  C          0.40248000       0.74428850       0.67500870
    63  H          0.67030000       0.25960000       0.28550000
    64  H          0.32970000       0.74040000       0.71450000
    65  C          0.47132000       0.17974160       0.27872140
    66  C          0.52868000       0.82025840       0.72127860
    67  H          0.44550000       0.12550000       0.19890000
    68  H          0.55450000       0.87450000       0.80110000
    69  C          0.37142000       0.18162160       0.34396150
    70  C          0.62858000       0.81837840       0.65603850
    71  H          0.28060000       0.13100000       0.30820000
    72  H          0.71940000       0.86900000       0.69180000
    73  C          0.39908170       0.25765150       0.45563140
    74  C          0.60091830       0.74234850       0.54436860
    75  H          0.32990000       0.26060000       0.49970000
    76  H          0.67010000       0.73940000       0.50030000
    77  C          0.53058150       0.33776130       0.50928120
    78  C          0.46941850       0.66223870       0.49071880
    79  N          0.91824110       0.22876100       0.71159900
    80  N          0.08175890       0.77123900       0.28840100
    81  C          0.03157130       0.32089120       0.75471110
    82  C          0.96842870       0.67910880       0.24528890
    83  C          0.06938150       0.39370140       0.87422120
    84  C          0.93061850       0.60629860       0.12577880
    85  H          0.01210000       0.37120000       0.92020000
    86  H         -0.01210000       0.62880000       0.07980000
    87  C          0.18051170       0.48909150       0.91823130
    88  C          0.81948830       0.51090850       0.08176870
    89  H          0.21060000       0.53670000      -0.00060000
    90  H          0.78940000       0.46330000       0.00060000
    91  C          0.26176160       0.51732150       0.84644140
    92  C          0.73823840       0.48267850       0.15355860
    93  H          0.34160000       0.58430000       0.87840000
    94  H          0.65840000       0.41570000       0.12160000
    95  C          0.23145140       0.44870140       0.73208130
    96  C          0.76854860       0.55129860       0.26791870
    97  H          0.28630000       0.46370000       0.68150000
    98  H          0.71370000       0.53630000       0.31850000
    99  C          0.11523130       0.34736120       0.68221110
   100  C          0.88476870       0.65263880       0.31778890
   101  N          0.08614120       0.27981110       0.56897900
   102  N          0.91385880       0.72018890       0.43102100
   103  C          0.97177140       0.18964120       0.52583110
   104  C          0.02822860       0.81035880       0.47416890
   105  C          0.93364170       0.11629150       0.40591120
   106  C          0.06635830       0.88370850       0.59408880
   107  H         -0.00510000       0.13680000       0.36190000
   108  H          0.00510000       0.86320000       0.63810000
   109  C          0.81729180       0.02794160       0.36103140
   110  C          0.18270820       0.97205840       0.63896860
   111  H          0.79290000       0.98210000       0.27940000
   112  H          0.20710000       0.01790000       0.72060000
   113  C          0.73085170       0.00472160       0.43118140
   114  C          0.26914830      -0.00472160       0.56881860
   115  H          0.64910000       0.94000000       0.39670000
   116  H          0.35090000       0.06000000       0.60330000
   117  C          0.76378150       0.07005140       0.54572130
   118  C          0.23621850       0.92994860       0.45427870
   119  H          0.70700000       0.05730000       0.59580000
   120  H          0.29300000       0.94270000       0.40420000
   121  C          0.88557140       0.16480120       0.59749110
   122  C          0.11442860       0.83519880       0.40250890
