data_QASFOI
_symmetry_space_group_name_H-M    'P1'
_symmetry_Int_Tables_number       1
loop_
_symmetry_equiv_pos_site_id
_symmetry_equiv_pos_as_xyz
1 x,y,z
_cell_length_a                   12.6325
_cell_length_b                   6.9685
_cell_length_c                   24.7535
_cell_angle_alpha                90.0
_cell_angle_beta                 96.0165
_cell_angle_gamma                90.0
loop_
_atom_site_label
_atom_site_type_symbol
_atom_site_fract_x
_atom_site_fract_y
_atom_site_fract_z
     1  C          0.69472000       0.17835000       0.10432130
     2  C          0.30528000       0.67835000       0.39567870
     3  C          0.30528000       0.82165000       0.89567870
     4  C          0.69472000       0.32165000       0.60432130
     5  H          0.75550000       0.15940000       0.12830000
     6  H          0.24450000       0.65940000       0.37170000
     7  H          0.24450000       0.84060000       0.87170000
     8  H          0.75550000       0.34060000       0.62830000
     9  C          0.59542000       0.18615000       0.12446130
    10  C          0.40458000       0.68615000       0.37553870
    11  C          0.40458000       0.81385000       0.87553870
    12  C          0.59542000       0.31385000       0.62446130
    13  H          0.59080000       0.17240000       0.16150000
    14  H          0.40920000       0.67240000       0.33850000
    15  H          0.40920000       0.82760000       0.83850000
    16  H          0.59080000       0.32760000       0.66150000
    17  C          0.50392000       0.21434000       0.08933130
    18  C          0.49608000       0.71434000       0.41066870
    19  C          0.49608000       0.78566000       0.91066870
    20  C          0.50392000       0.28566000       0.58933130
    21  C          0.51363000       0.23344000       0.03278140
    22  C          0.48637000       0.73344000       0.46721860
    23  C          0.48637000       0.76656000       0.96721860
    24  C          0.51363000       0.26656000       0.53278140
    25  C          0.61743000       0.22654000       0.01482150
    26  C          0.38257000       0.72654000       0.48517850
    27  C          0.38257000       0.77346000       0.98517850
    28  C          0.61743000       0.27346000       0.51482150
    29  C          0.63273000       0.24784000       0.95929830
    30  C          0.36727000       0.74784000       0.54070170
    31  C          0.36727000       0.75216000       0.04070170
    32  C          0.63273000       0.25216000       0.45929830
    33  H          0.70080000       0.24270000       0.94840000
    34  H          0.29920000       0.74270000       0.55160000
    35  H          0.29920000       0.75730000       0.05160000
    36  H          0.70080000       0.25730000       0.44840000
    37  C          0.54633000       0.27594000       0.92172860
    38  C          0.45367000       0.77594000       0.57827140
    39  C          0.45367000       0.72406000       0.07827140
    40  C          0.54633000       0.22406000       0.42172860
    41  H          0.55560000       0.29040000       0.88520000
    42  H          0.44440000       0.79040000       0.61480000
    43  H          0.44440000       0.70960000       0.11480000
    44  H          0.55560000       0.20960000       0.38520000
    45  C          0.44323000       0.28265000       0.93882850
    46  C          0.55677000       0.78265000       0.56117150
    47  C          0.55677000       0.71735000       0.06117150
    48  C          0.44323000       0.21735000       0.43882850
    49  H          0.38500000       0.30110000       0.91310000
    50  H          0.61500000       0.80110000       0.58690000
    51  H          0.61500000       0.69890000       0.08690000
    52  H          0.38500000       0.19890000       0.41310000
    53  C          0.42683000       0.26274000       0.99218860
    54  C          0.57317000       0.76274000       0.50781140
    55  C          0.57317000       0.73726000       0.00781140
    56  C          0.42683000       0.23726000       0.49218860
    57  H          0.35790000       0.26830000       0.00210000
    58  H          0.64210000       0.76830000       0.49790000
    59  H          0.64210000       0.73170000      -0.00210000
    60  H          0.35790000       0.23170000       0.50210000
    61  C          0.39922000       0.22414000       0.10945120
    62  C          0.60078000       0.72414000       0.39054880
    63  C          0.60078000       0.77586000       0.89054880
    64  C          0.39922000       0.27586000       0.60945120
    65  H          0.34030000       0.22780000       0.08360000
    66  H          0.65970000       0.72780000       0.41640000
    67  H          0.65970000       0.77220000       0.91640000
    68  H          0.34030000       0.27220000       0.58360000
    69  C          0.38053000       0.22834000       0.16186140
    70  C          0.61947000       0.72834000       0.33813860
    71  C          0.61947000       0.77166000       0.83813860
    72  C          0.38053000       0.27166000       0.66186140
    73  H          0.43800000       0.22560000       0.18860000
    74  H          0.56200000       0.72560000       0.31140000
    75  H          0.56200000       0.77440000       0.81140000
    76  H          0.43800000       0.27440000       0.68860000
    77  C          0.27463000       0.23693000       0.17805130
    78  C          0.72537000       0.73693000       0.32194870
    79  C          0.72537000       0.76307000       0.82194870
    80  C          0.27463000       0.26307000       0.67805130
    81  C          0.16903000       0.24564000       0.14186130
    82  C          0.83097000       0.74564000       0.35813870
    83  C          0.83097000       0.75436000       0.85813870
    84  C          0.16903000       0.25436000       0.64186130
    85  C          0.09103000       0.25174000       0.18346150
    86  C          0.90897000       0.75174000       0.31653850
    87  C          0.90897000       0.74826000       0.81653850
    88  C          0.09103000       0.24826000       0.68346150
    89  C          0.14373000       0.24674000       0.23469150
    90  C          0.85627000       0.74674000       0.26530850
    91  C          0.85627000       0.75326000       0.76530850
    92  C          0.14373000       0.25326000       0.73469150
    93  C          0.09503000       0.24904000       0.28185160
    94  C          0.90497000       0.74904000       0.21814840
    95  C          0.90497000       0.75096000       0.71814840
    96  C          0.09503000       0.25096000       0.78185160
    97  H          0.13350000       0.24600000       0.31600000
    98  H          0.86650000       0.74600000       0.18400000
    99  H          0.86650000       0.75400000       0.68400000
   100  H          0.13350000       0.25400000       0.81600000
   101  C          0.98437000       0.25614000       0.27507180
   102  C          0.01563000       0.75614000       0.22492820
   103  C          0.01563000       0.74386000       0.72492820
   104  C          0.98437000       0.24386000       0.77507180
   105  H          0.94690000       0.25680000       0.30550000
   106  H          0.05310000       0.75680000       0.19450000
   107  H          0.05310000       0.74320000       0.69450000
   108  H          0.94690000       0.24320000       0.80550000
   109  C          0.92927000       0.26204000       0.22358180
   110  C          0.07073000       0.76204000       0.27641820
   111  C          0.07073000       0.73796000       0.77641820
   112  C          0.92927000       0.23796000       0.72358180
   113  H          0.85540000       0.26740000       0.22030000
   114  H          0.14460000       0.76740000       0.27970000
   115  H          0.14460000       0.73260000       0.77970000
   116  H          0.85540000       0.23260000       0.72030000
   117  C          0.98067000       0.26024000       0.17683180
   118  C          0.01933000       0.76024000       0.32316820
   119  C          0.01933000       0.73976000       0.82316820
   120  C          0.98067000       0.23976000       0.67683180
   121  H          0.94300000       0.26450000       0.14250000
   122  H          0.05700000       0.76450000       0.35750000
   123  H          0.05700000       0.73550000       0.85750000
   124  H          0.94300000       0.23550000       0.64250000
   125  C          0.33503000       0.23174000       0.27712140
   126  C          0.66497000       0.73174000       0.22287860
   127  C          0.66497000       0.76826000       0.72287860
   128  C          0.33503000       0.26826000       0.77712140
   129  H          0.36790000       0.10730000       0.27950000
   130  H          0.63210000       0.60730000       0.22050000
   131  H          0.63210000       0.89270000       0.72050000
   132  H          0.36790000       0.39270000       0.77950000
   133  H          0.30110000       0.25570000       0.30940000
   134  H          0.69890000       0.75570000       0.19060000
   135  H          0.69890000       0.74430000       0.69060000
   136  H          0.30110000       0.24430000       0.80940000
   137  H          0.38830000       0.32790000       0.27350000
   138  H          0.61170000       0.82790000       0.22650000
   139  H          0.61170000       0.67210000       0.72650000
   140  H          0.38830000       0.17210000       0.77350000
   141  C          0.16002000       0.43104000       0.10675120
   142  C          0.83998000       0.93104000       0.39324880
   143  C          0.83998000       0.56896000       0.89324880
   144  C          0.16002000       0.06896000       0.60675120
   145  H          0.08750000       0.44840000       0.09170000
   146  H          0.91250000       0.94840000       0.40830000
   147  H          0.91250000       0.55160000       0.90830000
   148  H          0.08750000       0.05160000       0.59170000
   149  H          0.20470000       0.41960000       0.07790000
   150  H          0.79530000       0.91960000       0.42210000
   151  H          0.79530000       0.58040000       0.92210000
   152  H          0.20470000       0.08040000       0.57790000
   153  H          0.18220000       0.53950000       0.12900000
   154  H          0.81780000       0.03950000       0.37100000
   155  H          0.81780000       0.46050000       0.87100000
   156  H          0.18220000       0.96050000       0.62900000
   157  C          0.15142000       0.06264000       0.10619120
   158  C          0.84858000       0.56264000       0.39380880
   159  C          0.84858000       0.93736000       0.89380880
   160  C          0.15142000       0.43736000       0.60619120
   161  H          0.17080000       0.95120000       0.12780000
   162  H          0.82920000       0.45120000       0.37220000
   163  H          0.82920000       0.04880000       0.87220000
   164  H          0.17080000       0.54880000       0.62780000
   165  H          0.19480000       0.06950000       0.07660000
   166  H          0.80520000       0.56950000       0.42340000
   167  H          0.80520000       0.93050000       0.92340000
   168  H          0.19480000       0.43050000       0.57660000
   169  H          0.07780000       0.05400000       0.09210000
   170  H          0.92220000       0.55400000       0.40790000
   171  H          0.92220000       0.94600000       0.90790000
   172  H          0.07780000       0.44600000       0.59210000
   173  N          0.70382000       0.19724000       0.05198120
   174  N          0.29618000       0.69724000       0.44801880
   175  N          0.29618000       0.80276000       0.94801880
   176  N          0.70382000       0.30276000       0.55198120
   177  N          0.25532000       0.23833000       0.22963110
   178  N          0.74468000       0.73833000       0.27036890
   179  N          0.74468000       0.76167000       0.77036890
   180  N          0.25532000       0.26167000       0.72963110
   181  I          0.35340200       0.73454300       0.21984200
   182  I          0.64659800       0.23454300       0.28015800
   183  I          0.64659800       0.26545700       0.78015800
   184  I          0.35340200       0.76545700       0.71984200
   185  I          0.12819200       0.25209300       0.44290200
   186  I          0.87180800       0.75209300       0.05709800
   187  I          0.87180800       0.74790700       0.55709800
   188  I          0.12819200       0.24790700       0.94290200
   189  O          0.89292000       0.27864000       0.01706150
   190  O          0.10708000       0.77864000       0.48293850
   191  O          0.10708000       0.72136000       0.98293850
   192  O          0.89292000       0.22136000       0.51706150
   193  H          0.82870000       0.27100000       0.00300000
   194  H          0.17130000       0.77100000       0.49700000
   195  H          0.17130000       0.72900000      -0.00300000
   196  H          0.82870000       0.22900000       0.50300000
   197  H          0.93360000       0.29460000       0.99220000
   198  H          0.06640000       0.79460000       0.50780000
   199  H          0.06640000       0.70540000       0.00780000
   200  H          0.93360000       0.20540000       0.49220000
