data_QASZOD
_symmetry_space_group_name_H-M    'P1'
_symmetry_Int_Tables_number       1
loop_
_symmetry_equiv_pos_site_id
_symmetry_equiv_pos_as_xyz
1 x,y,z
_cell_length_a                   4.27504
_cell_length_b                   10.10689
_cell_length_c                   12.626312
_cell_angle_alpha                108.6603
_cell_angle_beta                 98.4553
_cell_angle_gamma                97.8573
loop_
_atom_site_label
_atom_site_type_symbol
_atom_site_fract_x
_atom_site_fract_y
_atom_site_fract_z
     1  Br         0.34593900       0.01983300       0.66843300
     2  Br         0.65406100       0.98016700       0.33156700
     3  O          0.63834000       0.33152000       0.49842000
     4  O          0.36166000       0.66848000       0.50158000
     5  H          0.51830000       0.36605000       0.45981900
     6  H          0.48170000       0.63395000       0.54018100
     7  O          0.70096000       0.28492000       0.88232000
     8  O          0.29904000       0.71508000       0.11768000
     9  H          0.70980000       0.19811000       0.85681800
    10  H          0.29020000       0.80189000       0.14318200
    11  O          0.23066000       0.63542000       0.79262000
    12  O          0.76934000       0.36458000       0.20738000
    13  H          0.09580000       0.64797000       0.74320000
    14  H          0.90420000       0.35203000       0.25680000
    15  C          0.29548000       0.21223000       0.70773000
    16  C          0.70452000       0.78777000       0.29227000
    17  C          0.07868000       0.25023000       0.63673000
    18  C          0.92132000       0.74977000       0.36327000
    19  H          0.94872000       0.17943000       0.56963000
    20  H          0.05128000       0.82057000       0.43037000
    21  C          0.24218000       0.49543000       0.76263000
    22  C          0.75782000       0.50457000       0.23737000
    23  C          0.81312000       0.43393000       0.58853000
    24  C          0.18688000       0.56607000       0.41147000
    25  C          0.04768000       0.39253000       0.66253000
    26  C          0.95232000       0.60747000       0.33747000
    27  C          0.48548000       0.31454000       0.80883000
    28  C          0.51452000       0.68546000       0.19117000
    29  C          0.45628000       0.45554000       0.83503000
    30  C          0.54372000       0.54446000       0.16497000
    31  H          0.58358000       0.52554000       0.90313000
    32  H          0.41642000       0.47446000       0.09687000
    33  O          0.78354000       0.56052000       0.61022000
    34  O          0.21646000       0.43948000       0.38978000
    35  O          0.88726000       0.06262000       0.92022000
    36  O          0.11274000       0.93738000       0.07978000
    37  C          0.12329000       0.14344000       0.02193000
    38  C          0.87671000       0.85656000       0.97807000
    39  H          0.34249000       0.14004000       0.00593000
    40  H          0.65751000       0.85996000      -0.00593000
    41  H          0.09899000       0.24424000       0.04713000
    42  H          0.90101000       0.75576000       0.95287000
    43  C          0.91829000       0.91617000       0.88483000
    44  C          0.08171000       0.08383000       0.11517000
    45  H          0.75319000       0.86037000       0.81523000
    46  H          0.24681000       0.13963000       0.18477000
    47  H          0.13349000       0.90827000       0.86613000
    48  H          0.86651000       0.09173000       0.13387000
