data_QASZUJ
_symmetry_space_group_name_H-M    'P1'
_symmetry_Int_Tables_number       1
loop_
_symmetry_equiv_pos_site_id
_symmetry_equiv_pos_as_xyz
1 x,y,z
_cell_length_a                   7.84675
_cell_length_b                   8.57385
_cell_length_c                   9.31156
_cell_angle_alpha                73.062618
_cell_angle_beta                 68.620418
_cell_angle_gamma                83.632119
loop_
_atom_site_label
_atom_site_type_symbol
_atom_site_fract_x
_atom_site_fract_y
_atom_site_fract_z
     1  Br         0.07130300       0.41060200       0.20804200
     2  Br         0.92869700       0.58939800       0.79195800
     3  O          0.33029190       0.12879170       0.22176160
     4  O          0.66970810       0.87120830       0.77823840
     5  O          0.70018190       0.55748170       0.50453840
     6  O          0.29981810       0.44251830       0.49546160
     7  O          0.75076190       0.27743170       0.68765830
     8  O          0.24923810       0.72256830       0.31234170
     9  O          0.45777190       0.71009160       0.59883830
    10  O          0.54222810       0.28990840       0.40116170
    11  C          0.28713000       0.37452000       0.04312000
    12  C          0.71287000       0.62548000       0.95688000
    13  C          0.39013000       0.23292000       0.07472000
    14  C          0.60987000       0.76708000       0.92528000
    15  C          0.60003000       0.31522000       0.80138000
    16  C          0.39997000       0.68478000       0.19862000
    17  C          0.34173000       0.48672000       0.89558000
    18  C          0.65827000       0.51328000       0.10442000
    19  C          0.49923000       0.45942000       0.77188000
    20  C          0.50077000       0.54058000       0.22812000
    21  C          0.56103000       0.57902000       0.61428000
    22  C          0.43897000       0.42098000       0.38572000
    23  C          0.54633000       0.20512000       0.95218000
    24  C          0.45367000       0.79488000       0.04782000
    25  H          0.27213000       0.58362000       0.87728000
    26  H          0.72787000       0.41638000       0.12272000
    27  H          0.61723000       0.10932000       0.97198000
    28  H          0.38277000       0.89068000       0.02802000
    29  H          0.41699000       0.06820000       0.23751200
    30  H          0.58301000       0.93180000       0.76248800
    31  H          0.77420000       0.35401300       0.60301000
    32  H          0.22580000       0.64598700       0.39699000
    33  H          0.50441800       0.77391300       0.50728900
    34  H          0.49558200       0.22608700       0.49271100
    35  S          0.77718600      -0.00633400       0.24086400
    36  S          0.22281400       0.00633400       0.75913600
    37  O          0.57840180       0.93656160       0.32166840
    38  O          0.42159820       0.06343840       0.67833160
    39  C          0.86463000       0.97503000       0.39678000
    40  C          0.13537000       0.02497000       0.60322000
    41  C          0.89903000       0.82823000       0.16657000
    42  C          0.10097000       0.17177000       0.83343000
    43  H          0.80291400       0.05391200       0.45728900
    44  H          0.19708600       0.94608800       0.54271100
    45  H          0.84261800       0.86436000       0.46879000
    46  H          0.15738200       0.13564000       0.53121000
    47  H         -0.00355000      -0.00368300       0.35017000
    48  H          0.00355000       0.00368300       0.64983000
    49  H          0.86681600       0.72624000       0.25214000
    50  H          0.13318400       0.27376000       0.74786000
    51  H          0.86621600       0.82121200       0.07678800
    52  H          0.13378400       0.17878800       0.92321200
    53  H          0.03093000       0.84669000       0.13018300
    54  H          0.96907000       0.15331000       0.86981700
