data_QATBIA
_symmetry_space_group_name_H-M    'P1'
_symmetry_Int_Tables_number       1
loop_
_symmetry_equiv_pos_site_id
_symmetry_equiv_pos_as_xyz
1 x,y,z
_cell_length_a                   4.91867
_cell_length_b                   14.0792
_cell_length_c                   14.6952
_cell_angle_alpha                97.2144
_cell_angle_beta                 91.3673
_cell_angle_gamma                98.7174
loop_
_atom_site_label
_atom_site_type_symbol
_atom_site_fract_x
_atom_site_fract_y
_atom_site_fract_z
     1  Br         0.57633130       0.04177400       0.83313400
     2  Br         0.42366870       0.95822600       0.16686600
     3  O          0.57688000       0.82877000       0.78302000
     4  O          0.42312000       0.17123000       0.21698000
     5  O          0.86862000       0.76017000       0.55213000
     6  O          0.13138000       0.23983000       0.44787000
     7  O          0.77472000       0.05193000       0.58623000
     8  O          0.22528000       0.94807000       0.41377000
     9  O          0.62612000       0.90297000       0.51313000
    10  O          0.37388000       0.09703000       0.48687000
    11  C          0.38391200       0.85706000       0.73024000
    12  C          0.61608800       0.14294000       0.26976000
    13  C          0.16171100       0.98786000       0.69164000
    14  C          0.83828900       0.01214000       0.30836000
    15  C          0.78298800       0.95836000       0.57114000
    16  C          0.21701200       0.04164000       0.42886000
    17  C         -0.01001100       0.92456000       0.62524000
    18  C          0.01001100       0.07544000       0.37476000
    19  C          0.22041100       0.79426000       0.66444000
    20  C          0.77958900       0.20574000       0.33556000
    21  C          0.35131100       0.95506000       0.74324000
    22  C          0.64868900       0.04494000       0.25676000
    23  C          0.02521100       0.82696000       0.61324000
    24  C         -0.02521100       0.17304000       0.38676000
    25  H          0.14481100       0.05474000       0.70054000
    26  H          0.85518900       0.94526000       0.29946000
    27  H          0.24261100       0.72796000       0.65444000
    28  H          0.75738900       0.27204000       0.34556000
    29  H          0.60580000       0.77328300       0.76120000
    30  H          0.39420000       0.22671700       0.23880000
    31  H          0.74220000       0.78528800       0.52930000
    32  H          0.25780000       0.21471200       0.47070000
    33  H          0.65320000       0.06587000       0.55130000
    34  H          0.34680000       0.93413000       0.44870000
    35  Br         0.90461870       0.27037600       0.74112500
    36  Br         0.09538130       0.72962400       0.25887500
    37  O          0.64858000       0.64558000       0.71533000
    38  O          0.35142000       0.35442000       0.28467000
    39  O          0.91251000       0.46567000       0.85253000
    40  O          0.08749000       0.53433000       0.14747000
    41  O          0.88288000       0.55677000       0.58442000
    42  O          0.11712000       0.44323000       0.41558000
    43  O          0.72268000       0.40157000       0.53313000
    44  O          0.27732000       0.59843000       0.46687000
    45  C          0.71881200       0.48226000       0.58974000
    46  C          0.28118800       0.51774000       0.41026000
    47  C          0.50941100       0.47656000       0.65744000
    48  C          0.49058900       0.52344000       0.34256000
    49  C          0.48011100       0.55886000       0.71784000
    50  C          0.51988900       0.44114000       0.28216000
    51  C          0.10981200       0.47196000       0.78954000
    52  C          0.89018800       0.52804000       0.21046000
    53  C          0.32951100       0.39076000       0.66564000
    54  C          0.67048900       0.60924000       0.33436000
    55  C          0.13481100       0.38866000       0.73034000
    56  C          0.86518900       0.61134000       0.26966000
    57  C          0.28281100       0.55756000       0.78284000
    58  C          0.71718900       0.44244000       0.21716000
    59  H          0.34351100       0.33336000       0.62564000
    60  H          0.65648900       0.66664000       0.37436000
    61  H          0.26571100       0.61486000       0.82254000
    62  H          0.73428900       0.38514000       0.17746000
    63  H          0.76380000       0.63878900       0.67430000
    64  H          0.23620000       0.36121100       0.32570000
    65  H          0.91510000       0.52008900       0.88430000
    66  H          0.08490000       0.47991100       0.11570000
    67  H          0.83690000       0.41249000       0.49220000
    68  H          0.16310000       0.58751000       0.50780000
    69  O          0.91521000       0.65007000       0.93353000
    70  O          0.08479000       0.34993000       0.06647000
    71  C          0.79328700       0.69715000       0.99024000
    72  C          0.20671300       0.30285000       0.00976000
    73  C          0.87298600       0.80446000       0.00804000
    74  C          0.12701400       0.19554000      -0.00804000
    75  C          0.56688800       0.64955000       0.04224000
    76  C          0.43311200       0.35045000       0.95776000
    77  C          0.08191400       0.84995000       0.94804000
    78  C          0.91808600       0.15005000       0.05196000
    79  H          0.70428600       0.83416000       0.00234000
    80  H          0.29571400       0.16584000      -0.00234000
    81  H          0.94438600       0.82156000       0.07254000
    82  H          0.05561400       0.17844000       0.92746000
    83  H          0.59460000       0.58299000       0.04720000
    84  H          0.40540000       0.41701000       0.95280000
    85  H          0.56650000       0.68568300       0.10371000
    86  H          0.43350000       0.31431700       0.89629000
    87  H          0.38998600       0.64870000       0.00971400
    88  H          0.61001400       0.35130000       0.99028600
    89  H          0.12360000       0.91974000       0.96811800
    90  H          0.87640000       0.08026000       0.03188200
    91  H          0.25130000       0.82080000       0.95220000
    92  H          0.74870000       0.17920000       0.04780000
    93  H          0.00940000       0.83870000       0.88436000
    94  H         -0.00940000       0.16130000       0.11564000
