data_QATHEC
_symmetry_space_group_name_H-M    'P1'
_symmetry_Int_Tables_number       1
loop_
_symmetry_equiv_pos_site_id
_symmetry_equiv_pos_as_xyz
1 x,y,z
_cell_length_a                   17.27499
_cell_length_b                   3.90722
_cell_length_c                   35.4412
_cell_angle_alpha                90.0
_cell_angle_beta                 98.920116
_cell_angle_gamma                90.0
loop_
_atom_site_label
_atom_site_type_symbol
_atom_site_fract_x
_atom_site_fract_y
_atom_site_fract_z
     1  Br         0.90108800       0.53810800       0.32771200
     2  Br         0.59891200       0.53810800       0.67228800
     3  Br         0.40108800       0.03810800       0.82771200
     4  Br         0.09891200       0.03810800       0.17228800
     5  Br         0.09891200       0.46189200       0.67228800
     6  Br         0.40108800       0.46189200       0.32771200
     7  Br         0.59891200       0.96189200       0.17228800
     8  Br         0.90108800       0.96189200       0.82771200
     9  Br         0.14589200       0.17768800       0.42777200
    10  Br         0.35410800       0.17768800       0.57222800
    11  Br         0.64589200       0.67768800       0.92777200
    12  Br         0.85410800       0.67768800       0.07222800
    13  Br         0.85410800       0.82231200       0.57222800
    14  Br         0.64589200       0.82231200       0.42777200
    15  Br         0.35410800       0.32231200       0.07222800
    16  Br         0.14589200       0.32231200       0.92777200
    17  O          0.24812140       0.89527000       0.29287700
    18  O          0.25187860       0.89527000       0.70712300
    19  O          0.74812140       0.39527000       0.79287700
    20  O          0.75187860       0.39527000       0.20712300
    21  O          0.75187860       0.10473000       0.70712300
    22  O          0.74812140       0.10473000       0.29287700
    23  O          0.25187860       0.60473000       0.20712300
    24  O          0.24812140       0.60473000       0.79287700
    25  O          0.98171860       0.87636000       0.39826700
    26  O          0.51828140       0.87636000       0.60173300
    27  O          0.48171860       0.37636000       0.89826700
    28  O          0.01828140       0.37636000       0.10173300
    29  O          0.01828140       0.12364000       0.60173300
    30  O          0.48171860       0.12364000       0.39826700
    31  O          0.51828140       0.62364000       0.10173300
    32  O          0.98171860       0.62364000       0.89826700
    33  H         -0.00259900       0.02386500       0.41493500
    34  H          0.50259900       0.02386500       0.58506500
    35  H          0.49740100       0.52386500       0.91493500
    36  H          0.00259900       0.52386500       0.08506500
    37  H          0.00259900      -0.02386500       0.58506500
    38  H          0.49740100      -0.02386500       0.41493500
    39  H          0.50259900       0.47613500       0.08506500
    40  H         -0.00259900       0.47613500       0.91493500
    41  O          0.23032150       0.08987000       0.36115800
    42  O          0.26967850       0.08987000       0.63884200
    43  O          0.73032150       0.58987000       0.86115800
    44  O          0.76967850       0.58987000       0.13884200
    45  O          0.76967850       0.91013000       0.63884200
    46  O          0.73032150       0.91013000       0.36115800
    47  O          0.26967850       0.41013000       0.13884200
    48  O          0.23032150       0.41013000       0.86115800
    49  H          0.25531300       0.05470500       0.34299300
    50  H          0.24468700       0.05470500       0.65700700
    51  H          0.75531300       0.55470500       0.84299300
    52  H          0.74468700       0.55470500       0.15700700
    53  H          0.74468700       0.94529500       0.65700700
    54  H          0.75531300       0.94529500       0.34299300
    55  H          0.24468700       0.44529500       0.15700700
    56  H          0.25531300       0.44529500       0.84299300
    57  O          0.15188150       0.60047000       0.25762700
    58  O          0.34811850       0.60047000       0.74237300
    59  O          0.65188150       0.10047000       0.75762700
    60  O          0.84811850       0.10047000       0.24237300
    61  O          0.84811850       0.39953000       0.74237300
    62  O          0.65188150       0.39953000       0.25762700
    63  O          0.34811850       0.89953000       0.24237300
    64  O          0.15188150       0.89953000       0.75762700
    65  H          0.18497500       0.59225600       0.24260300
    66  H          0.31502500       0.59225600       0.75739700
    67  H          0.68497500       0.09225600       0.74260300
    68  H          0.81502500       0.09225600       0.25739700
    69  H          0.81502500       0.40774400       0.75739700
    70  H          0.68497500       0.40774400       0.24260300
    71  H          0.31502500       0.90774400       0.25739700
    72  H          0.18497500       0.90774400       0.74260300
    73  C          0.03127180       0.86118000       0.37292900
    74  C          0.46872820       0.86118000       0.62707100
    75  C          0.53127180       0.36118000       0.87292900
    76  C          0.96872820       0.36118000       0.12707100
    77  C          0.96872820       0.13882000       0.62707100
    78  C          0.53127180       0.13882000       0.37292900
    79  C          0.46872820       0.63882000       0.12707100
    80  C          0.03127180       0.63882000       0.87292900
    81  C          0.12948190       0.80428000       0.31718900
    82  C          0.37051810       0.80428000       0.68281100
    83  C          0.62948190       0.30428000       0.81718900
    84  C          0.87051810       0.30428000       0.18281100
    85  C          0.87051810       0.19572000       0.68281100
    86  C          0.62948190       0.19572000       0.31718900
    87  C          0.37051810       0.69572000       0.18281100
    88  C          0.12948190       0.69572000       0.81718900
    89  C          0.05226190       0.68038000       0.31006900
    90  C          0.44773810       0.68038000       0.68993100
    91  C          0.55226190       0.18038000       0.81006900
    92  C          0.94773810       0.18038000       0.18993100
    93  C          0.94773810       0.31962000       0.68993100
    94  C          0.55226190       0.31962000       0.31006900
    95  C          0.44773810       0.81962000       0.18993100
    96  C          0.05226190       0.81962000       0.81006900
    97  H          0.03294900       0.57755200       0.28615000
    98  H          0.46705100       0.57755200       0.71385000
    99  H          0.53294900       0.07755200       0.78615000
   100  H          0.96705100       0.07755200       0.21385000
   101  H          0.96705100       0.42244800       0.71385000
   102  H          0.53294900       0.42244800       0.28615000
   103  H          0.46705100       0.92244800       0.21385000
   104  H          0.03294900       0.92244800       0.78615000
   105  C          0.10777190      -0.01612000       0.37960900
   106  C          0.39222810      -0.01612000       0.62039100
   107  C          0.60777190       0.48388000       0.87960900
   108  C          0.89222810       0.48388000       0.12039100
   109  C          0.89222810       0.01612000       0.62039100
   110  C          0.60777190       0.01612000       0.37960900
   111  C          0.39222810       0.51612000       0.12039100
   112  C          0.10777190       0.51612000       0.87960900
   113  C          0.18106190       0.77058000       0.28825100
   114  C          0.31893810       0.77058000       0.71174900
   115  C          0.68106190       0.27058000       0.78825100
   116  C          0.81893810       0.27058000       0.21174900
   117  C          0.81893810       0.22942000       0.71174900
   118  C          0.68106190       0.22942000       0.28825100
   119  C          0.31893810       0.72942000       0.21174900
   120  C          0.18106190       0.72942000       0.78825100
   121  C          0.00457180       0.70718000       0.33753900
   122  C          0.49542820       0.70718000       0.66246100
   123  C          0.50457180       0.20718000       0.83753900
   124  C         -0.00457180       0.20718000       0.16246100
   125  C         -0.00457180       0.29282000       0.66246100
   126  C          0.50457180       0.29282000       0.33753900
   127  C          0.49542820       0.79282000       0.16246100
   128  C          0.00457180       0.79282000       0.83753900
   129  C          0.15767190       0.96028000       0.35236900
   130  C          0.34232810       0.96028000       0.64763100
   131  C          0.65767190       0.46028000       0.85236900
   132  C          0.84232810       0.46028000       0.14763100
   133  C          0.84232810       0.03972000       0.64763100
   134  C          0.65767190       0.03972000       0.35236900
   135  C          0.34232810       0.53972000       0.14763100
   136  C          0.15767190       0.53972000       0.85236900
   137  O          0.02279140       0.73087000       0.53828700
   138  O          0.47720860       0.73087000       0.46171300
   139  O          0.52279140       0.23087000       0.03828700
   140  O          0.97720860       0.23087000       0.96171300
   141  O          0.97720860       0.26913000       0.46171300
   142  O          0.52279140       0.26913000       0.53828700
   143  O          0.47720860       0.76913000       0.96171300
   144  O          0.02279140       0.76913000       0.03828700
   145  O          0.10475150       0.40247000       0.51202800
   146  O          0.39524850       0.40247000       0.48797200
   147  O          0.60475150       0.90247000       0.01202800
   148  O          0.89524850       0.90247000       0.98797200
   149  O          0.89524850       0.59753000       0.48797200
   150  O          0.60475150       0.59753000       0.51202800
   151  O          0.39524850       0.09753000       0.98797200
   152  O          0.10475150       0.09753000       0.01202800
   153  H          0.06363500       0.36037400       0.49672900
   154  H          0.43636500       0.36037400       0.50327100
   155  H          0.56363500       0.86037400      -0.00327100
   156  H          0.93636500       0.86037400       0.00327100
   157  H          0.93636500       0.63962600       0.50327100
   158  H          0.56363500       0.63962600       0.49672900
   159  H          0.43636500       0.13962600       0.00327100
   160  H          0.06363500       0.13962600      -0.00327100
   161  C          0.08862000       0.60999000       0.53871100
   162  C          0.41138000       0.60999000       0.46128900
   163  C          0.58862000       0.10999000       0.03871100
   164  C          0.91138000       0.10999000       0.96128900
   165  C          0.91138000       0.39001000       0.46128900
   166  C          0.58862000       0.39001000       0.53871100
   167  C          0.41138000       0.89001000       0.96128900
   168  C          0.08862000       0.89001000       0.03871100
   169  C          0.15622000       0.67999000       0.56914110
   170  C          0.34378000       0.67999000       0.43085890
   171  C          0.65622000       0.17999000       0.06914110
   172  C          0.84378000       0.17999000       0.93085890
   173  C          0.84378000       0.32001000       0.43085890
   174  C          0.65622000       0.32001000       0.56914110
   175  C          0.34378000       0.82001000       0.93085890
   176  C          0.15622000       0.82001000       0.06914110
   177  H          0.19760200       0.79623000       0.55801000
   178  H          0.30239800       0.79623000       0.44199000
   179  H          0.69760200       0.29623000       0.05801000
   180  H          0.80239800       0.29623000       0.94199000
   181  H          0.80239800       0.20377000       0.44199000
   182  H          0.69760200       0.20377000       0.55801000
   183  H          0.30239800       0.70377000       0.94199000
   184  H          0.19760200       0.70377000       0.05801000
   185  H          0.17646500       0.46346700       0.58069300
   186  H          0.32353500       0.46346700       0.41930700
   187  H          0.67646500       0.96346700       0.08069300
   188  H          0.82353500       0.96346700       0.91930700
   189  H          0.82353500       0.53653300       0.41930700
   190  H          0.67646500       0.53653300       0.58069300
   191  H          0.32353500       0.03653300       0.91930700
   192  H          0.17646500       0.03653300       0.08069300
   193  H          0.13921200       0.82611300       0.58877600
   194  H          0.36078800       0.82611300       0.41122400
   195  H          0.63921200       0.32611300       0.08877600
   196  H          0.86078800       0.32611300       0.91122400
   197  H          0.86078800       0.17388700       0.41122400
   198  H          0.63921200       0.17388700       0.58877600
   199  H          0.36078800       0.67388700       0.91122400
   200  H          0.13921200       0.67388700       0.08877600
