data_QATPEG
_symmetry_space_group_name_H-M    'P1'
_symmetry_Int_Tables_number       1
loop_
_symmetry_equiv_pos_site_id
_symmetry_equiv_pos_as_xyz
1 x,y,z
_cell_length_a                   7.69942
_cell_length_b                   13.15142
_cell_length_c                   17.64254
_cell_angle_alpha                81.32301
_cell_angle_beta                 87.41601
_cell_angle_gamma                74.99401
loop_
_atom_site_label
_atom_site_type_symbol
_atom_site_fract_x
_atom_site_fract_y
_atom_site_fract_z
     1  S          0.76128120       0.57166600       0.44676500
     2  S          0.23871880       0.42833400       0.55323500
     3  S          0.77054110       0.34601600       0.49323500
     4  S          0.22945890       0.65398400       0.50676500
     5  S          0.62706110       0.61840600       0.61893400
     6  S          0.37293890       0.38159400       0.38106600
     7  S          0.65513110       0.39000600       0.66444400
     8  S          0.34486890       0.60999400       0.33555600
     9  S          0.90061120       0.54440700       0.28863500
    10  S          0.09938880       0.45559300       0.71136500
    11  S          0.89520120       0.27681600       0.34653500
    12  S          0.10479880       0.72318400       0.65346500
    13  S          0.51251110       0.67608600       0.77366500
    14  S          0.48748890       0.32391400       0.22633500
    15  S          0.57261120       0.40318600       0.82758500
    16  S          0.42738880       0.59681400       0.17241500
    17  C          0.72874000       0.47262000       0.51930180
    18  C          0.27126000       0.52738000       0.48069820
    19  C          0.67624000       0.49212000       0.59206180
    20  C          0.32376000       0.50788000       0.40793820
    21  C          0.83904000       0.48582000       0.37814180
    22  C          0.16096000       0.51418000       0.62185820
    23  C          0.84094000       0.38242000       0.39961180
    24  C          0.15906000       0.61758000       0.60038820
    25  C          0.57484000       0.57732000       0.71432180
    26  C          0.42516000       0.42268000       0.28567820
    27  C          0.59354000       0.47162000       0.73616180
    28  C          0.40646000       0.52838000       0.26383820
    29  C          0.87774000       0.44682000       0.23003180
    30  C          0.12226000       0.55318000       0.76996820
    31  H          0.74890000       0.44810000       0.22790000
    32  H          0.25110000       0.55190000       0.77210000
    33  H          0.91730000       0.46790000       0.17720000
    34  H          0.08270000       0.53210000       0.82280000
    35  C          0.98314000       0.33412000       0.25783180
    36  C          0.01686000       0.66588000       0.74216820
    37  H          0.10990000       0.33370000       0.26560000
    38  H          0.89010000       0.66630000       0.73440000
    39  H          0.98130000       0.28920000       0.21780000
    40  H          0.01870000       0.71080000       0.78220000
    41  C          0.62004000       0.59783000       0.86021180
    42  C          0.37996000       0.40217000       0.13978820
    43  H          0.74970000       0.56960000       0.84980000
    44  H          0.25030000       0.43040000       0.15020000
    45  H          0.60890000       0.64420000       0.90030000
    46  H          0.39110000       0.35580000       0.09970000
    47  C          0.53904000       0.50593000       0.88979190
    48  C          0.46096000       0.49407000       0.11020810
    49  H          0.40830000       0.53440000       0.89740000
    50  H          0.59170000       0.46560000       0.10260000
    51  H          0.59160000       0.47250000       0.94050000
    52  H          0.40840000       0.52750000       0.05950000
    53  S          0.34587110       0.10873600       0.33384400
    54  S          0.65412890       0.89126400       0.66615600
    55  S          0.37325110       0.88062400       0.37925500
    56  S          0.62674890       0.11937600       0.62074500
    57  S          0.23144110       0.15237600       0.50548500
    58  S          0.76855890       0.84762400       0.49451500
    59  S          0.24488120       0.92612400       0.55166500
    60  S          0.75511880       0.07387600       0.44833500
    61  S          0.42740120       0.09642600       0.17083500
    62  S          0.57259880       0.90357400       0.82916500
    63  S          0.48120110       0.82329400       0.22400500
    64  S          0.51879890       0.17670600       0.77599500
    65  S          0.11125120       0.21884600       0.65372500
    66  S          0.88874880       0.78115400       0.34627500
    67  S          0.11719120       0.94854300       0.71091500
    68  S          0.88280880       0.05145700       0.28908500
    69  C          0.32554000       0.00662000       0.40649180
    70  C          0.67446000      -0.00662000       0.59350820
    71  C          0.27514000       0.02562000       0.47932180
    72  C          0.72486000       0.97438000       0.52067820
    73  C          0.40384000       0.02792000       0.26193180
    74  C          0.59616000       0.97208000       0.73806820
    75  C          0.42224000       0.92208000       0.28322180
    76  C          0.57776000       0.07792000       0.71677820
    77  C          0.16624000       0.11422000       0.59971170
    78  C          0.83376000       0.88578000       0.40028830
    79  C          0.17094000       0.01032000       0.62113180
    80  C          0.82906000       0.98968000       0.37886820
    81  C          0.46605000      -0.00663000       0.10871190
    82  C          0.53395000       0.00663000       0.89128810
    83  H          0.41930000       0.02680000       0.05700000
    84  H          0.58070000       0.97320000       0.94300000
    85  H          0.59730000       0.96360000       0.10370000
    86  H          0.40270000       0.03640000       0.89630000
    87  C          0.37984000       0.90267000       0.13631190
    88  C          0.62016000       0.09733000       0.86368810
    89  H          0.39230000       0.85660000       0.09590000
    90  H          0.60770000       0.14340000       0.90410000
    91  H          0.24980000       0.93220000       0.14530000
    92  H          0.75020000       0.06780000       0.85470000
    93  C          0.01634000       0.15943000       0.73943190
    94  C          0.98366000       0.84057000       0.26056810
    95  H          0.00660000       0.20560000       0.77970000
    96  H         -0.00660000       0.79440000       0.22030000
    97  H          0.89330000       0.15610000       0.72810000
    98  H          0.10670000       0.84390000       0.27190000
    99  C          0.12604000       0.04822000       0.77022180
   100  C          0.87396000       0.95178000       0.22977820
   101  H          0.08160000       0.02710000       0.82220000
   102  H          0.91840000       0.97290000       0.17780000
   103  H          0.25290000       0.04970000       0.77490000
   104  H          0.74710000       0.95030000       0.22510000
   105  S          0.11373110       0.31315700       0.97199500
   106  S          0.88626890       0.68684300       0.02800500
   107  F          0.21623000       0.40413170       0.96139870
   108  F          0.78377000       0.59586830       0.03860130
   109  F          0.28183000       0.23828190       0.01673160
   110  F          0.71817000       0.76171810       0.98326840
   111  F          0.20443000       0.27892000       0.89395860
   112  F          0.79557000       0.72108000       0.10604140
   113  F          0.95317000       0.39390190       0.92649840
   114  F          0.04683000       0.60609810       0.07350160
   115  F          0.03454000       0.35202000       0.04863140
   116  F          0.96546000       0.64798000       0.95136860
   117  C         -0.00804000       0.20283000       0.98010810
   118  C          0.00804000       0.79717000       0.01989190
   119  F          0.11853000       0.11133160       0.98794840
   120  F          0.88147000       0.88866840       0.01205160
   121  F          0.91717000       0.21292000       0.91154880
   122  F          0.08283000       0.78708000       0.08845120
   123  S          0.81731870       0.19845700       0.05505500
   124  S          0.18268130       0.80154300       0.94494500
   125  O          0.75307000       0.11142000       0.03802150
   126  O          0.24693000       0.88858000       0.96197850
   127  O          0.69556000       0.30192000       0.03912000
   128  O          0.30444000       0.69808000       0.96088000
   129  O          0.91765000       0.17713000       0.12554160
   130  O          0.08235000       0.82287000       0.87445840
