data_QAXZEX
_symmetry_space_group_name_H-M    'P1'
_symmetry_Int_Tables_number       1
loop_
_symmetry_equiv_pos_site_id
_symmetry_equiv_pos_as_xyz
1 x,y,z
_cell_length_a                   8.96541
_cell_length_b                   9.933812
_cell_length_c                   16.606218
_cell_angle_alpha                103.9672
_cell_angle_beta                 92.8433
_cell_angle_gamma                94.5392
loop_
_atom_site_label
_atom_site_type_symbol
_atom_site_fract_x
_atom_site_fract_y
_atom_site_fract_z
     1  S          0.18036110       0.53382110       0.41950500
     2  S          0.81963890       0.46617890       0.58049500
     3  O          0.93777000       0.63953000       0.83588140
     4  O          0.06223000       0.36047000       0.16411860
     5  H          0.88210000       0.64570000       0.87410000
     6  H          0.11790000       0.35430000       0.12590000
     7  N          0.38423000       0.68483000       0.53179160
     8  N          0.61577000       0.31517000       0.46820840
     9  H          0.41590000       0.72510000       0.58230000
    10  H          0.58410000       0.27490000       0.41770000
    11  H          0.43980000       0.69030000       0.49170000
    12  H          0.56020000       0.30970000       0.50830000
    13  C          0.25124000       0.61513000       0.51592190
    14  C          0.74876000       0.38487000       0.48407810
    15  O          0.28103000       0.92093000       0.05369140
    16  O          0.71897000       0.07907000       0.94630860
    17  H          0.21980000       0.89460000       0.08310000
    18  H          0.78020000       0.10540000       0.91690000
    19  N          0.16943000       0.61023000       0.58117160
    20  N          0.83057000       0.38977000       0.41882840
    21  H          0.08310000       0.56290000       0.57270000
    22  H          0.91690000       0.43710000       0.42730000
    23  C          0.13164000       0.66694000       0.71752000
    24  C          0.86836000       0.33306000       0.28248000
    25  H          0.04000000       0.61360000       0.70200000
    26  H          0.96000000       0.38640000       0.29800000
    27  N          0.22093000       0.67943000       0.66123160
    28  N          0.77907000       0.32057000       0.33876840
    29  C          0.16934000       0.73344000       0.80462190
    30  C          0.83066000       0.26656000       0.19537810
    31  C          0.06894000       0.71904000       0.86392000
    32  C          0.93106000       0.28096000       0.13608000
    33  C          0.10304000       0.78244000       0.94732000
    34  C          0.89696000       0.21756000       0.05268000
    35  H          0.03410000       0.77380000       0.98620000
    36  H          0.96590000       0.22620000       0.01380000
    37  C          0.24034000       0.85874000       0.97242000
    38  C          0.75966000       0.14126000       0.02758000
    39  C          0.34244000       0.87634000       0.91402000
    40  C          0.65756000       0.12366000       0.08598000
    41  H          0.43360000       0.92950000       0.93090000
    42  H          0.56640000       0.07050000       0.06910000
    43  C          0.30604000       0.81394000       0.83152000
    44  C          0.69396000       0.18606000       0.16848000
    45  H          0.37380000       0.82530000       0.79250000
    46  H          0.62620000       0.17470000       0.20750000
    47  N          0.49294000       0.71294000       0.36501190
    48  N          0.50706000       0.28706000       0.63498810
    49  C          0.52705000       0.59155000       0.32233000
    50  C          0.47295000       0.40845000       0.67767000
    51  H          0.52210000       0.51810000       0.34810000
    52  H          0.47790000       0.48190000       0.65190000
    53  N          0.75474000       0.62234000       0.96050810
    54  N          0.24526000       0.37766000       0.03949190
    55  C          0.57005000       0.56484000       0.24122000
    56  C          0.42995000       0.43516000       0.75878000
    57  H          0.59330000       0.47630000       0.21440000
    58  H          0.40670000       0.52370000       0.78560000
    59  C          0.57794000       0.67114000       0.20072000
    60  C          0.42206000       0.32886000       0.79928000
    61  C          0.53654000       0.79724000       0.24412000
    62  C          0.46346000       0.20276000       0.75588000
    63  H          0.53490000       0.87150000       0.21920000
    64  H          0.46510000       0.12850000       0.78080000
    65  C          0.49714000       0.81305000       0.32542000
    66  C          0.50286000       0.18695000       0.67458000
    67  H          0.47200000       0.90000000       0.35380000
    68  H          0.52800000       0.10000000       0.64620000
    69  C          0.63264000       0.65024000       0.11582000
    70  C          0.36736000       0.34976000       0.88418000
    71  C          0.71776000       0.54655000       0.08333000
    72  C          0.28224000       0.45345000       0.91667000
    73  H          0.73790000       0.48110000       0.11310000
    74  H          0.26210000       0.51890000       0.88690000
    75  C          0.77496000       0.53645000       0.00703000
    76  C          0.22504000       0.46355000      -0.00703000
    77  H          0.83210000       0.46280000       0.98730000
    78  H          0.16790000       0.53720000       0.01270000
    79  C          0.67125000       0.72136000       0.99037000
    80  C          0.32875000       0.27864000       0.00963000
    81  H          0.65410000       0.78520000       0.95900000
    82  H          0.34590000       0.21480000       0.04100000
    83  C          0.60615000       0.73815000       0.06543000
    84  C          0.39385000       0.26185000       0.93457000
    85  H          0.54410000       0.80910000       0.08180000
    86  H          0.45590000       0.19090000       0.91820000
    87  N          0.74324000       0.90954000       0.54382000
    88  N          0.25676000       0.09046000       0.45618000
    89  C          0.79865000       0.79435000       0.50483000
    90  C          0.20135000       0.20565000       0.49517000
    91  H          0.79150000       0.71900000       0.52900000
    92  H          0.20850000       0.28100000       0.47100000
    93  N          0.08604000       0.85144000       0.16162190
    94  N          0.91396000       0.14856000       0.83837810
    95  C          0.86624000       0.77784000       0.43082000
    96  C          0.13376000       0.22216000       0.56918000
    97  H          0.90350000       0.69370000       0.40680000
    98  H          0.09650000       0.30630000       0.59320000
    99  C          0.87844000       0.88634000       0.39232000
   100  C          0.12156000       0.11366000       0.60768000
   101  C          0.82124000       0.00754000       0.43262000
   102  C          0.17876000      -0.00754000       0.56738000
   103  H          0.82680000       0.08450000       0.40990000
   104  H          0.17320000       0.91550000       0.59010000
   105  C          0.75575000       0.01385000       0.50672000
   106  C          0.24425000      -0.01385000       0.49328000
   107  H          0.71780000       0.09670000       0.53230000
   108  H          0.28220000       0.90330000       0.46770000
   109  C          0.94964000       0.87214000       0.31252000
   110  C          0.05036000       0.12786000       0.68748000
   111  C          0.05644000       0.78094000       0.28802000
   112  C          0.94356000       0.21906000       0.71198000
   113  H          0.08540000       0.72420000       0.32190000
   114  H          0.91460000       0.27580000       0.67810000
   115  C          0.12025000       0.77375000       0.21382000
   116  C          0.87975000       0.22625000       0.78618000
   117  H          0.19160000       0.71080000       0.19910000
   118  H          0.80840000       0.28920000       0.80090000
   119  C          0.98085000       0.93714000       0.18442000
   120  C          0.01915000       0.06286000       0.81558000
   121  H          0.95240000      -0.00890000       0.14870000
   122  H          0.04760000       0.00890000       0.85130000
   123  C          0.91134000       0.95094000       0.25752000
   124  C          0.08866000       0.04906000       0.74248000
   125  H          0.83860000       0.01320000       0.27010000
   126  H          0.16140000      -0.01320000       0.72990000
   127  O          0.58873000       0.85644000       0.68004190
   128  O          0.41127000       0.14356000       0.31995810
   129  H          0.63630000       0.88180000       0.64460000
   130  H          0.36370000       0.11820000       0.35540000
   131  C          0.68485000       0.80525000       0.73143000
   132  C          0.31515000       0.19475000       0.26857000
   133  H          0.78420000       0.80900000       0.71260000
   134  H          0.21580000       0.19100000       0.28740000
   135  H          0.65050000       0.71050000       0.72960000
   136  H          0.34950000       0.28950000       0.27040000
   137  H          0.68600000       0.86090000       0.78740000
   138  H          0.31400000       0.13910000       0.21260000
