data_QAYYUN
_symmetry_space_group_name_H-M    'P1'
_symmetry_Int_Tables_number       1
loop_
_symmetry_equiv_pos_site_id
_symmetry_equiv_pos_as_xyz
1 x,y,z
_cell_length_a                   14.011015
_cell_length_b                   10.930612
_cell_length_c                   17.9812
_cell_angle_alpha                90.0
_cell_angle_beta                 97.4195
_cell_angle_gamma                90.0
loop_
_atom_site_label
_atom_site_type_symbol
_atom_site_fract_x
_atom_site_fract_y
_atom_site_fract_z
     1  P          0.25214200       0.60176300       0.25988200
     2  P          0.74785800       0.10176300       0.24011800
     3  P          0.74785800       0.39823700       0.74011800
     4  P          0.25214200       0.89823700       0.75988200
     5  O          0.27454600       0.50596800       0.31904500
     6  O          0.72545400       0.00596800       0.18095500
     7  O          0.72545400       0.49403200       0.68095500
     8  O          0.27454600      -0.00596800       0.81904500
     9  C          0.35417800       0.69825100       0.25017700
    10  C          0.64582200       0.19825100       0.24982300
    11  C          0.64582200       0.30174900       0.74982300
    12  C          0.35417800       0.80174900       0.75017700
    13  C          0.21172800       0.53412100       0.17017700
    14  C          0.78827200       0.03412100       0.32982300
    15  C          0.78827200       0.46587900       0.82982300
    16  C          0.21172800       0.96587900       0.67017700
    17  C          0.34855900       0.79073110       0.19580700
    18  C          0.65144100       0.29073110       0.30419300
    19  C          0.65144100       0.20926890       0.80419300
    20  C          0.34855900       0.70926890       0.69580700
    21  H          0.29380000       0.79790000       0.16090000
    22  H          0.70620000       0.29790000       0.33910000
    23  H          0.70620000       0.20210000       0.83910000
    24  H          0.29380000       0.70210000       0.66090000
    25  C          0.15760900       0.59968100       0.11258700
    26  C          0.84239100       0.09968100       0.38741300
    27  C          0.84239100       0.40031900       0.88741300
    28  C          0.15760900       0.90031900       0.61258700
    29  H          0.14130000       0.68080000       0.12010000
    30  H          0.85870000       0.18080000       0.37990000
    31  H          0.85870000       0.31920000       0.87990000
    32  H          0.14130000       0.81920000       0.62010000
    33  C          0.15776800       0.70412100       0.28136700
    34  C          0.84223200       0.20412100       0.21863300
    35  C          0.84223200       0.29587900       0.71863300
    36  C          0.15776800       0.79587900       0.78136700
    37  C          0.12822900       0.54366110       0.04413700
    38  C          0.87177100       0.04366110       0.45586300
    39  C          0.87177100       0.45633890       0.95586300
    40  C          0.12822900       0.95633890       0.54413700
    41  H          0.09170000       0.58690000       0.00600000
    42  H          0.90830000       0.08690000       0.49400000
    43  H          0.90830000       0.41310000      -0.00600000
    44  H          0.09170000       0.91310000       0.50600000
    45  C          0.18207900       0.81570110       0.31696700
    46  C          0.81792100       0.31570110       0.18303300
    47  C          0.81792100       0.18429890       0.68303300
    48  C          0.18207900       0.68429890       0.81696700
    49  H          0.24600000       0.84070000       0.32500000
    50  H          0.75400000       0.34070000       0.17500000
    51  H          0.75400000       0.15930000       0.67500000
    52  H          0.24600000       0.65930000       0.82500000
    53  C          0.42475900       0.87183110       0.19401700
    54  C          0.57524100       0.37183110       0.30598300
    55  C          0.57524100       0.12816890       0.80598300
    56  C          0.42475900       0.62816890       0.69401700
    57  H          0.42060000       0.93400000       0.15840000
    58  H          0.57940000       0.43400000       0.34160000
    59  H          0.57940000       0.06600000       0.84160000
    60  H          0.42060000       0.56600000       0.65840000
    61  C          0.11023100       0.88941110       0.34033700
    62  C          0.88976900       0.38941110       0.15966300
    63  C          0.88976900       0.11058890       0.65966300
    64  C          0.11023100       0.61058890       0.84033700
    65  H          0.12660000       0.96340000       0.36420000
    66  H          0.87340000       0.46340000       0.13580000
    67  H          0.87340000       0.03660000       0.63580000
    68  H          0.12660000       0.53660000       0.86420000
    69  C          0.23702900       0.41228100       0.15791700
    70  C          0.76297100       0.91228100       0.34208300
    71  C          0.76297100       0.58771900       0.84208300
    72  C          0.23702900       0.08771900       0.65791700
    73  H          0.27300000       0.36830000       0.19600000
    74  H          0.72700000       0.86830000       0.30400000
    75  H          0.72700000       0.63170000       0.80400000
    76  H          0.27300000       0.13170000       0.69600000
    77  C          0.43753900       0.68626110       0.30142700
    78  C          0.56246100       0.18626110       0.19857300
    79  C          0.56246100       0.31373890       0.69857300
    80  C          0.43753900       0.81373890       0.80142700
    81  H          0.44190000       0.62440000       0.33720000
    82  H          0.55810000       0.12440000       0.16280000
    83  H          0.55810000       0.37560000       0.66280000
    84  H          0.44190000       0.87560000       0.83720000
    85  C          0.06089900       0.66766110       0.26946700
    86  C          0.93910100       0.16766110       0.23053300
    87  C          0.93910100       0.33233890       0.73053300
    88  C          0.06089900       0.83233890       0.76946700
    89  H          0.04420000       0.59360000       0.24580000
    90  H          0.95580000       0.09360000       0.25420000
    91  H          0.95580000       0.40640000       0.75420000
    92  H          0.04420000       0.90640000       0.74580000
    93  C          0.50734900       0.85953110       0.24578800
    94  C          0.49265100       0.35953110       0.25421200
    95  C          0.49265100       0.14046890       0.75421200
    96  C          0.50734900       0.64046890       0.74578800
    97  H          0.55820000       0.91390000       0.24460000
    98  H          0.44180000       0.41390000       0.25540000
    99  H          0.44180000       0.08610000       0.75540000
   100  H          0.55820000       0.58610000       0.74460000
   101  C          0.20844900       0.35715110       0.08889800
   102  C          0.79155100       0.85715110       0.41110200
   103  C          0.79155100       0.64284890       0.91110200
   104  C          0.20844900       0.14284890       0.58889800
   105  H          0.22610000       0.27680000       0.08050000
   106  H          0.77390000       0.77680000       0.41950000
   107  H          0.77390000       0.72320000       0.91950000
   108  H          0.22610000       0.22320000       0.58050000
   109  C          0.15360900       0.42224110       0.03263700
   110  C          0.84639100       0.92224110       0.46736300
   111  C          0.84639100       0.57775890       0.96736300
   112  C          0.15360900       0.07775890       0.53263700
   113  H          0.13350000       0.38480000       0.98680000
   114  H          0.86650000       0.88480000       0.51320000
   115  H          0.86650000       0.61520000       0.01320000
   116  H          0.13350000       0.11520000       0.48680000
   117  C          0.01428100       0.85290110       0.32819800
   118  C          0.98571900       0.35290110       0.17180200
   119  C          0.98571900       0.14709890       0.67180200
   120  C          0.01428100       0.64709890       0.82819800
   121  H          0.96670000       0.90260000       0.34370000
   122  H          0.03330000       0.40260000       0.15630000
   123  H          0.03330000       0.09740000       0.65630000
   124  H          0.96670000       0.59740000       0.84370000
   125  C          0.51432900       0.76697120       0.29897700
   126  C          0.48567100       0.26697120       0.20102300
   127  C          0.48567100       0.23302880       0.70102300
   128  C          0.51432900       0.73302880       0.79897700
   129  H          0.57000000       0.75870000       0.33290000
   130  H          0.43000000       0.25870000       0.16710000
   131  H          0.43000000       0.24130000       0.66710000
   132  H          0.57000000       0.74130000       0.83290000
   133  C         -0.01048900       0.74198120       0.29288800
   134  C          0.01048900       0.24198120       0.20711200
   135  C          0.01048900       0.25801880       0.70711200
   136  C         -0.01048900       0.75801880       0.79288800
   137  H          0.92550000       0.71740000       0.28490000
   138  H          0.07450000       0.21740000       0.21510000
   139  H          0.07450000       0.28260000       0.71510000
   140  H          0.92550000       0.78260000       0.78490000
   141  F          0.31740600       0.22021800       0.31173500
   142  F          0.68259400       0.72021800       0.18826500
   143  F          0.68259400       0.77978200       0.68826500
   144  F          0.31740600       0.27978200       0.81173500
   145  F          0.27583700       0.12516100       0.40674600
   146  F          0.72416300       0.62516100       0.09325400
   147  F          0.72416300       0.87483900       0.59325400
   148  F          0.27583700       0.37483900       0.90674600
   149  F          0.35422700       0.03092800       0.32896600
   150  F          0.64577300       0.53092800       0.17103400
   151  F          0.64577300       0.96907200       0.67103400
   152  F          0.35422700       0.46907200       0.82896600
   153  O          0.35600700       0.38643800       0.56528500
   154  O          0.64399300       0.88643800       0.93471500
   155  O          0.64399300       0.61356200       0.43471500
   156  O          0.35600700       0.11356200       0.06528500
   157  N          0.37352800       0.36980100       0.44089600
   158  N          0.62647200       0.86980100       0.05910400
   159  N          0.62647200       0.63019900       0.55910400
   160  N          0.37352800       0.13019900       0.94089600
   161  H          0.35380000       0.39630000       0.39650000
   162  H          0.64620000       0.89630000       0.10350000
   163  H          0.64620000       0.60370000       0.60350000
   164  H          0.35380000       0.10370000       0.89650000
   165  N          0.25350800       0.48967100       0.47629600
   166  N          0.74649200      -0.01032900       0.02370400
   167  N          0.74649200       0.51032900       0.52370400
   168  N          0.25350800       0.01032900       0.97629600
   169  H          0.24840000       0.51250000       0.43020000
   170  H          0.75160000       0.01250000       0.06980000
   171  H          0.75160000       0.48750000       0.56980000
   172  H          0.24840000      -0.01250000       0.93020000
   173  C          0.18282900       0.53512110       0.51844700
   174  C          0.81717100       0.03512110       0.98155300
   175  C          0.81717100       0.46487890       0.48155300
   176  C          0.18282900       0.96487890       0.01844700
   177  C          0.32960900       0.41340100       0.49993700
   178  C          0.67039100       0.91340100       0.00006300
   179  C          0.67039100       0.58659900       0.50006300
   180  C          0.32960900       0.08659900      -0.00006300
   181  C          0.03416100       0.65102120       0.51523800
   182  C          0.96583900       0.15102120       0.98476200
   183  C          0.96583900       0.34897880       0.48476200
   184  C          0.03416100       0.84897880       0.01523800
   185  H          0.98640000       0.69870000       0.48870000
   186  H          0.01360000       0.19870000       0.01130000
   187  H          0.01360000       0.30130000       0.51130000
   188  H          0.98640000       0.80130000       0.98870000
   189  C          0.44177900       0.17164110       0.41097700
   190  C          0.55822100       0.67164110       0.08902300
   191  C          0.55822100       0.82835890       0.58902300
   192  C          0.44177900       0.32835890       0.91097700
   193  C          0.44981900       0.28315110       0.44996700
   194  C          0.55018100       0.78315110       0.05003300
   195  C          0.55018100       0.71684890       0.55003300
   196  C          0.44981900       0.21684890       0.94996700
   197  C          0.11035100       0.60870110       0.47996800
   198  C          0.88964900       0.10870110       0.02003200
   199  C          0.88964900       0.39129890       0.52003200
   200  C          0.11035100       0.89129890       0.97996800
   201  H          0.11340000       0.62940000       0.43020000
   202  H          0.88660000       0.12940000       0.06980000
   203  H          0.88660000       0.37060000       0.56980000
   204  H          0.11340000       0.87060000       0.93020000
   205  C          0.17881100       0.50859110       0.59396700
   206  C          0.82118900       0.00859110       0.90603300
   207  C          0.82118900       0.49140890       0.40603300
   208  C          0.17881100      -0.00859110       0.09396700
   209  H          0.22690000       0.46220000       0.62110000
   210  H          0.77310000       0.96220000       0.87890000
   211  H          0.77310000       0.53780000       0.37890000
   212  H          0.22690000       0.03780000       0.12110000
   213  C          0.53526100       0.30877120       0.49625700
   214  C          0.46473900       0.80877120       0.00374300
   215  C          0.46473900       0.69122880       0.50374300
   216  C          0.53526100       0.19122880      -0.00374300
   217  H          0.54150000       0.38210000       0.52270000
   218  H          0.45850000       0.88210000       0.97730000
   219  H          0.45850000       0.61790000       0.47730000
   220  H          0.54150000       0.11790000       0.02270000
   221  C          0.02869100       0.62269120       0.58968900
   222  C          0.97130900       0.12269120       0.91031100
   223  C          0.97130900       0.37730880       0.41031100
   224  C          0.02869100       0.87730880       0.08968900
   225  H          0.97730000       0.64990000       0.61330000
   226  H          0.02270000       0.14990000       0.88670000
   227  H          0.02270000       0.35010000       0.38670000
   228  H          0.97730000       0.85010000       0.11330000
   229  C          0.51852110       0.08978120       0.41741800
   230  C          0.48147890       0.58978120       0.08258200
   231  C          0.48147890       0.91021880       0.58258200
   232  C          0.51852110       0.41021880       0.91741800
   233  H          0.51290000       0.01670000       0.39070000
   234  H          0.48710000       0.51670000       0.10930000
   235  H          0.48710000       0.98330000       0.60930000
   236  H          0.51290000       0.48330000       0.89070000
   237  C          0.10167110       0.55261120       0.62828800
   238  C          0.89832890       0.05261120       0.87171200
   239  C          0.89832890       0.44738880       0.37171200
   240  C          0.10167110       0.94738880       0.12828800
   241  H          0.09910000       0.53450000       0.67850000
   242  H          0.90090000       0.03450000       0.82150000
   243  H          0.90090000       0.46550000       0.32150000
   244  H          0.09910000       0.96550000       0.17850000
   245  C          0.34852100       0.13794120       0.36469800
   246  C          0.65147900       0.63794120       0.13530200
   247  C          0.65147900       0.86205880       0.63530200
   248  C          0.34852100       0.36205880       0.86469800
   249  C          0.61111100       0.22599130       0.50324800
   250  C          0.38888900       0.72599130      -0.00324800
   251  C          0.38888900       0.77400870       0.49675200
   252  C          0.61111100       0.27400870       0.00324800
   253  H          0.66740000       0.24390000       0.53470000
   254  H          0.33260000       0.74390000       0.96530000
   255  H          0.33260000       0.75610000       0.46530000
   256  H          0.66740000       0.25610000       0.03470000
   257  C          0.60343100       0.11650130       0.46345900
   258  C          0.39656900       0.61650130       0.03654100
   259  C          0.39656900       0.88349870       0.53654100
   260  C          0.60343100       0.38349870       0.96345900
   261  H          0.65460000       0.06170000       0.46760000
   262  H          0.34540000       0.56170000       0.03240000
   263  H          0.34540000       0.93830000       0.53240000
   264  H          0.65460000       0.43830000       0.96760000
