data_QAYZAU
_symmetry_space_group_name_H-M    'P1'
_symmetry_Int_Tables_number       1
loop_
_symmetry_equiv_pos_site_id
_symmetry_equiv_pos_as_xyz
1 x,y,z
_cell_length_a                   9.74883
_cell_length_b                   11.90244
_cell_length_c                   12.58244
_cell_angle_alpha                79.7882
_cell_angle_beta                 81.3582
_cell_angle_gamma                66.72701
loop_
_atom_site_label
_atom_site_type_symbol
_atom_site_fract_x
_atom_site_fract_y
_atom_site_fract_z
     1  P          0.57177400       0.77424300       0.79845300
     2  P          0.42822600       0.22575700       0.20154700
     3  O          0.73888100       0.73059800       0.78425800
     4  O          0.26111900       0.26940200       0.21574200
     5  C          0.50202150       0.66421120       0.77045110
     6  C          0.49797850       0.33578880       0.22954890
     7  C          0.51229160       0.56181120       0.84753120
     8  C          0.48770840       0.43818880       0.15246880
     9  H          0.54820000       0.55470000       0.91550000
    10  H          0.45180000       0.44530000       0.08450000
    11  C          0.47018170       0.47027130       0.82517130
    12  C          0.52981830       0.52972870       0.17482870
    13  H          0.47620000       0.40130000       0.87820000
    14  H          0.52380000       0.59870000       0.12180000
    15  C          0.41940160       0.47959140       0.72555140
    16  C          0.58059840       0.52040860       0.27444860
    17  H          0.39040000       0.41710000       0.71040000
    18  H          0.60960000       0.58290000       0.28960000
    19  C          0.41089170       0.58010140       0.64802130
    20  C          0.58910830       0.41989860       0.35197870
    21  H          0.37710000       0.58590000       0.57950000
    22  H          0.62290000       0.41410000       0.42050000
    23  C          0.45169160       0.67239130       0.67036120
    24  C          0.54830840       0.32760870       0.32963880
    25  H          0.44520000       0.74130000       0.61720000
    26  H          0.55480000       0.25870000       0.38280000
    27  C          0.50153150       0.80507110       0.93473100
    28  C          0.49846850       0.19492890       0.06526900
    29  C          0.59577160       0.81680130       0.00170110
    30  C          0.40422840       0.18319870      -0.00170110
    31  H          0.69730000       0.80290000       0.97660000
    32  H          0.30270000       0.19710000       0.02340000
    33  C          0.54076180       0.84885140       0.10509120
    34  C          0.45923820       0.15114860       0.89490880
    35  H          0.60490000       0.85640000       0.15090000
    36  H          0.39510000       0.14360000       0.84910000
    37  C          0.39256180       0.86979130       0.14127120
    38  C          0.60743820       0.13020870       0.85872880
    39  H          0.35470000       0.89330000       0.21150000
    40  H          0.64530000       0.10670000       0.78850000
    41  C          0.29892160       0.85669120       0.07567120
    42  C          0.70107840       0.14330880       0.92432880
    43  H          0.19760000       0.87030000       0.10130000
    44  H          0.80240000       0.12970000       0.89870000
    45  C          0.35290150       0.82385120       0.97282110
    46  C          0.64709850       0.17614880       0.02717890
    47  H          0.28900000       0.81410000       0.92820000
    48  H          0.71100000       0.18590000       0.07180000
    49  C          0.48539160       0.91595120       0.71172110
    50  C          0.51460840       0.08404880       0.28827890
    51  C          0.57748170       0.97598120       0.65758110
    52  C          0.42251830       0.02401880       0.34241890
    53  H          0.68270000       0.93890000       0.66230000
    54  H          0.31730000       0.06110000       0.33770000
    55  C          0.51502000       0.09086140       0.59621120
    56  C          0.48498000       0.90913860       0.40378880
    57  H          0.57780000       0.13220000       0.55960000
    58  H          0.42220000       0.86780000       0.44040000
    59  C          0.36292000       0.14443140       0.58850130
    60  C          0.63708000       0.85556860       0.41149870
    61  H          0.32080000       0.22310000       0.54720000
    62  H          0.67920000       0.77690000       0.45280000
    63  C          0.27066190       0.08415140       0.64071130
    64  C          0.72933810       0.91584860       0.35928870
    65  H          0.16580000       0.12080000       0.63410000
    66  H          0.83420000       0.87920000       0.36590000
    67  C          0.33141170       0.97011140       0.70271120
    68  C          0.66858830       0.02988860       0.29728880
    69  H          0.26800000       0.92910000       0.73890000
    70  H          0.73200000       0.07090000       0.26110000
    71  O          0.14970110       0.39362900       0.68918900
    72  O          0.85029890       0.60637100       0.31081100
    73  N          0.97082170       0.90957120       0.66669110
    74  N          0.02917830       0.09042880       0.33330890
    75  N          0.00643130       0.60093100       0.66117100
    76  N         -0.00643130       0.39906900       0.33882900
    77  H          0.93520000       0.65921800       0.68961500
    78  H          0.06480000       0.34078200       0.31038500
    79  N          0.95366130       0.48283100       0.81222900
    80  N          0.04633870       0.51716900       0.18777100
    81  H          0.88620000       0.55521800       0.82461500
    82  H          0.11380000       0.44478200       0.17538500
    83  C          0.13529160       0.78461130       0.42877120
    84  C          0.86470840       0.21538870       0.57122880
    85  H          0.13170000       0.86650000       0.40950000
    86  H          0.86830000       0.13350000       0.59050000
    87  C          0.20097170       0.70012150       0.35622130
    88  C          0.79902830       0.29987850       0.64377870
    89  H          0.24280000       0.72320000       0.28680000
    90  H          0.75720000       0.27680000       0.71320000
    91  C          0.20535160       0.58080140       0.38572120
    92  C          0.79464840       0.41919860       0.61427880
    93  H          0.25150000       0.52230000       0.33590000
    94  H          0.74850000       0.47770000       0.66410000
    95  C          0.14402150       0.54528130       0.48587120
    96  C          0.85597850       0.45471870       0.51412880
    97  H          0.14880000       0.46300000       0.50410000
    98  H          0.85120000       0.53700000       0.49590000
    99  C          0.07506140       0.62955120       0.56048110
   100  C          0.92493860       0.37044880       0.43951890
   101  C          0.07390150       0.74973120       0.53091110
   102  C          0.92609850       0.25026880       0.46908890
   103  C          0.01491170       0.83799120       0.60694120
   104  C          0.98508830       0.16200880       0.39305880
   105  C          0.04511150       0.48357120       0.71875110
   106  C          0.95488850       0.51642880       0.28124890
   107  C          0.96943150       0.38119120       0.89283110
   108  C          0.03056850       0.61880880       0.10716890
   109  C          0.04618150       0.25896120       0.87255120
   110  C          0.95381850       0.74103880       0.12744880
   111  H          0.08890000       0.24100000       0.80160000
   112  H          0.91110000       0.75900000       0.19840000
   113  C          0.05923160       0.16415130       0.95740130
   114  C          0.94076840       0.83584870       0.04259870
   115  H          0.11190000       0.08110000       0.94380000
   116  H          0.88810000       0.91890000       0.05620000
   117  C         -0.00280840       0.18808140       0.06132130
   118  C          0.00280840       0.81191860       0.93867870
   119  H          0.00900000       0.12240000       0.11890000
   120  H          0.99100000       0.87760000       0.88110000
   121  C          0.91745170       0.30941140       0.08024120
   122  C          0.08254830       0.69058860       0.91975880
   123  H          0.87240000       0.32670000       0.15090000
   124  H          0.12760000       0.67330000       0.84910000
   125  C          0.90297160       0.40543130      -0.00302880
   126  C          0.09702840       0.59456870       0.00302880
   127  H          0.84760000       0.48810000       0.01070000
   128  H          0.15240000       0.51190000      -0.01070000
