data_QEBZEG
_symmetry_space_group_name_H-M    'P1'
_symmetry_Int_Tables_number       1
loop_
_symmetry_equiv_pos_site_id
_symmetry_equiv_pos_as_xyz
1 x,y,z
_cell_length_a                   7.5282
_cell_length_b                   8.3332
_cell_length_c                   9.3063
_cell_angle_alpha                107.373
_cell_angle_beta                 105.742
_cell_angle_gamma                102.952
loop_
_atom_site_label
_atom_site_type_symbol
_atom_site_fract_x
_atom_site_fract_y
_atom_site_fract_z
     1  P          0.00610700       0.37853600       0.51916600
     2  P         -0.00610700       0.62146400       0.48083400
     3  O          0.95748000       0.38950180       0.66892160
     4  O          0.04252000       0.61049820       0.33107840
     5  O          0.20962000       0.37023180       0.53432170
     6  O          0.79038000       0.62976820       0.46567830
     7  O          0.85528000       0.22204180       0.36189170
     8  O          0.14472000       0.77795820       0.63810830
     9  H          0.73819300       0.19379300       0.35540300
    10  H          0.26180700       0.80620700       0.64459700
    11  P          0.60528300      -0.00270600       0.60486600
    12  P          0.39471700       0.00270600       0.39513400
    13  O          0.50338000       0.88443810       0.67519180
    14  O          0.49662000       0.11556190       0.32480820
    15  O          0.76208000       0.93813810       0.54654180
    16  O          0.23792000       0.06186190       0.45345820
    17  H          0.76370800       0.83303100       0.51748700
    18  H          0.23629200       0.16696900       0.48251300
    19  O          0.70788000       0.19500180       0.72305160
    20  O          0.29212000       0.80499820       0.27694840
    21  H          0.78536200       0.25792200       0.69545900
    22  H          0.21463800       0.74207800       0.30454100
    23  N          0.52023000       0.59852000       0.81622000
    24  N          0.47977000       0.40148000       0.18378000
    25  H          0.43240000       0.53440000       0.73730000
    26  H          0.56760000       0.46560000       0.26270000
    27  C          0.49333000       0.67653000       0.95442000
    28  C          0.50667000       0.32347000       0.04558000
    29  N          0.31323000       0.63462000       0.95892000
    30  N          0.68677000       0.36538000       0.04108000
    31  H          0.22140000       0.56340000       0.87540000
    32  H          0.77860000       0.43660000       0.12460000
    33  H          0.30640000       0.68730000       0.05730000
    34  H          0.69360000       0.31270000       0.94270000
    35  C          0.65883000       0.79963000       0.08953000
    36  C          0.34117000       0.20037000       0.91047000
    37  H          0.64547600       0.85705200       0.18884800
    38  H          0.35452400       0.14294800       0.81115200
    39  C          0.83883000       0.83523000       0.07613000
    40  C          0.16117000       0.16477000       0.92387000
    41  H          0.95044800       0.91786300       0.16687000
    42  H          0.04955200       0.08213700       0.83313000
    43  C          0.86073000       0.75123000       0.92953000
    44  C          0.13927000       0.24877000       0.07047000
    45  H         -0.01434400       0.77571500       0.92025600
    46  H          0.01434400       0.22428500       0.07974400
    47  C          0.69863000       0.63423000       0.80173000
    48  C          0.30137000       0.36577000       0.19827000
    49  H          0.70971400       0.57673400       0.70130000
    50  H          0.29028600       0.42326600       0.29870000
