data_QEDQEZ
_symmetry_space_group_name_H-M    'P1'
_symmetry_Int_Tables_number       1
loop_
_symmetry_equiv_pos_site_id
_symmetry_equiv_pos_as_xyz
1 x,y,z
_cell_length_a                   5.94992
_cell_length_b                   7.78632
_cell_length_c                   40.751913
_cell_angle_alpha                90.0
_cell_angle_beta                 90.0
_cell_angle_gamma                90.0
loop_
_atom_site_label
_atom_site_type_symbol
_atom_site_fract_x
_atom_site_fract_y
_atom_site_fract_z
     1  Cl         0.49050850       0.17623140       0.27691200
     2  Cl         0.00949150       0.82376860       0.77691200
     3  Cl         0.50949150       0.67623140       0.22308800
     4  Cl        -0.00949150       0.32376860       0.72308800
     5  N          0.82665000       0.37984000       0.26550600
     6  N          0.67335000       0.62016000       0.76550600
     7  N          0.17335000       0.87984000       0.23449400
     8  N          0.32665000       0.12016000       0.73449400
     9  O          0.27724000       0.49742000       0.36909400
    10  O          0.22276000       0.50258000       0.86909400
    11  O          0.72276000      -0.00258000       0.13090600
    12  O          0.77724000       0.00258000       0.63090600
    13  N          0.13544000       0.81433000       0.33707500
    14  N          0.36456000       0.18567000       0.83707500
    15  N          0.86456000       0.31433000       0.16292500
    16  N          0.63544000       0.68567000       0.66292500
    17  O          0.58324000       0.51593000       0.39883500
    18  O          0.91676000       0.48407000       0.89883500
    19  O          0.41676000       0.01593000       0.10116500
    20  O          0.08324000      -0.01593000       0.60116500
    21  N          0.23225000       0.01583000       0.37230600
    22  N          0.26775000      -0.01583000       0.87230600
    23  N          0.76775000       0.51583000       0.12769400
    24  N          0.73225000       0.48417000       0.62769400
    25  N          0.43294000       0.58683000       0.38182500
    26  N          0.06706000       0.41317000       0.88182500
    27  N          0.56706000       0.08683000       0.11817500
    28  N          0.93294000       0.91317000       0.61817500
    29  O          0.60244000       0.03493000       0.38886500
    30  O          0.89756000       0.96507000       0.88886500
    31  O          0.39756000       0.53493000       0.11113500
    32  O          0.10244000       0.46507000       0.61113500
    33  C          0.68895000       0.33084000       0.28846700
    34  C          0.81105000       0.66916000       0.78846700
    35  C          0.31105000       0.83084000       0.21153300
    36  C          0.18895000       0.16916000       0.71153300
    37  C         -0.01996000       0.49674000       0.27395700
    38  C          0.51996000       0.50326000       0.77395700
    39  C          0.01996000      -0.00326000       0.22604300
    40  C          0.48004000       0.00326000       0.72604300
    41  H          0.08104000       0.53543300       0.25746400
    42  H          0.41896000       0.46456700       0.75746400
    43  H          0.91896000       0.03543300       0.24253600
    44  H          0.58104000       0.96456700       0.74253600
    45  C          0.00215000       0.56513000       0.30499600
    46  C          0.49785000       0.43487000       0.80499600
    47  C         -0.00215000       0.06513000       0.19500400
    48  C          0.50215000       0.93487000       0.69500400
    49  C          0.85095000       0.50954000       0.32829700
    50  C          0.64905000       0.49046000       0.82829700
    51  C          0.14905000       0.00954000       0.17170300
    52  C          0.35095000      -0.00954000       0.67170300
    53  H          0.85757100       0.55439000       0.34994500
    54  H          0.64242900       0.44561000       0.84994500
    55  H          0.14242900       0.05439000       0.15005500
    56  H          0.35757100       0.94561000       0.65005500
    57  C          0.68995000       0.38884000       0.32028700
    58  C          0.81005000       0.61116000       0.82028700
    59  C          0.31005000       0.88884000       0.17971300
    60  C          0.18995000       0.11116000       0.67971300
    61  H          0.58514800       0.34792600       0.33602100
    62  H          0.91485200       0.65207400       0.83602100
    63  H          0.41485200       0.84792600       0.16397900
    64  H          0.08514800       0.15207400       0.66397900
    65  C          0.18975000       0.68954000       0.31181600
    66  C          0.31025000       0.31046000       0.81181600
    67  C          0.81025000       0.18954000       0.18818400
    68  C          0.68975000       0.81046000       0.68818400
    69  H          0.32459900       0.62426700       0.31865500
    70  H          0.17540100       0.37573300       0.81865500
    71  H          0.67540100       0.12426700       0.18134500
    72  H          0.82459900       0.87573300       0.68134500
    73  H          0.22713000       0.75124200       0.29129500
    74  H          0.27287000       0.24875800       0.79129500
    75  H          0.77287000       0.25124200       0.20870500
    76  H          0.72713000       0.74875800       0.70870500
    77  C         -0.00536000       0.96404000       0.32856700
    78  C          0.50536000       0.03596000       0.82856700
    79  C          0.00536000       0.46404000       0.17143300
    80  C          0.49464000       0.53596000       0.67143300
    81  H          0.83391700       0.93969600       0.33278100
    82  H          0.66608300       0.06030400       0.83278100
    83  H          0.16608300       0.43969600       0.16721900
    84  H          0.33391700       0.56030400       0.66721900
    85  H          0.01360900      -0.00461600       0.30518500
    86  H          0.48639100       0.00461600       0.80518500
    87  H         -0.01360900       0.49538400       0.19481500
    88  H          0.51360900       0.50461600       0.69481500
    89  C          0.07955000       0.10644000       0.35083700
    90  C          0.42045000       0.89356000       0.85083700
    91  C          0.92045000       0.60644000       0.14916300
    92  C          0.57955000       0.39356000       0.64916300
    93  H          0.15852700       0.19651600       0.33814900
    94  H          0.34147300       0.80348400       0.83814900
    95  H          0.84147300       0.69651600       0.16185100
    96  H          0.65852700       0.30348400       0.66185100
    97  H          0.95484500       0.15951600       0.36332800
    98  H          0.54515500       0.84048400       0.86332800
    99  H          0.04515500       0.65951600       0.13667200
   100  H          0.45484500       0.34048400       0.63667200
   101  C          0.26925000       0.85413000       0.36235600
   102  C          0.23075000       0.14587000       0.86235600
   103  C          0.73075000       0.35413000       0.13764400
   104  C          0.76925000       0.64587000       0.63764400
   105  C          0.43885000       0.76004000       0.37848600
   106  C          0.06115000       0.23996000       0.87848600
   107  C          0.56115000       0.26004000       0.12151400
   108  C          0.93885000       0.73996000       0.62151400
   109  C          0.60045000       0.85854000       0.40023700
   110  C          0.89955000       0.14146000       0.90023700
   111  C          0.39955000       0.35854000       0.09976300
   112  C          0.10045000       0.64146000       0.59976300
   113  H          0.75421700       0.80682900       0.39987800
   114  H          0.74578300       0.19317100       0.89987800
   115  H          0.24578300       0.30682900       0.10012200
   116  H          0.25421700       0.69317100       0.60012200
   117  C          0.51215000       0.87704000       0.43497700
   118  C         -0.01215000       0.12296000       0.93497700
   119  C          0.48785000       0.37704000       0.06502300
   120  C          0.01215000       0.62296000       0.56502300
   121  H          0.63259900       0.91238700       0.45029500
   122  H          0.86740100       0.08761300       0.95029500
   123  H          0.36740100       0.41238700       0.04970500
   124  H          0.13259900       0.58761300       0.54970500
   125  H          0.44374500       0.76867700       0.44286200
   126  H          0.05625500       0.23132300       0.94286200
   127  H          0.55625500       0.26867700       0.05713800
   128  H          0.94374500       0.73132300       0.55713800
   129  C          0.33526000       0.01844000       0.43096700
   130  C          0.16474000       0.98156000       0.93096700
   131  C          0.66474000       0.51844000       0.06903300
   132  C          0.83526000       0.48156000       0.56903300
   133  H          0.18137700       0.97048700       0.43235800
   134  H          0.31862300       0.02951300       0.93235800
   135  H          0.81862300       0.47048700       0.06764200
   136  H          0.68137700       0.52951300       0.56764200
   137  H          0.35314900       0.10808000       0.44798300
   138  H          0.14685100       0.89192000       0.94798300
   139  H          0.64685100       0.60808000       0.05201700
   140  H          0.85314900       0.39192000       0.55201700
   141  C          0.38105000       0.09074000       0.39699700
   142  C          0.11895000       0.90926000       0.89699700
   143  C          0.61895000       0.59074000       0.10300300
   144  C          0.88105000       0.40926000       0.60300300
   145  H          0.37074900       0.21890400       0.39694900
   146  H          0.12925100       0.78109600       0.89694900
   147  H          0.62925100       0.71890400       0.10305100
   148  H          0.87074900       0.28109600       0.60305100
   149  O          0.04255000       0.73203000       0.47182600
   150  O          0.45745000       0.26797000       0.97182600
   151  O          0.95745000       0.23203000       0.02817400
   152  O          0.54255000       0.76797000       0.52817400
   153  N          0.75954000       0.54303000       0.48210500
   154  N          0.74046000       0.45697000       0.98210500
   155  N          0.24046000       0.04303000       0.01789500
   156  N          0.25954000       0.95697000       0.51789500
   157  H          0.68522600       0.60737600       0.49616100
   158  H          0.81477400       0.39262400       0.99616100
   159  H          0.31477400       0.10737600       0.00383900
   160  H          0.18522600       0.89262400       0.50383900
   161  C          0.03286000       0.45125000       0.44567800
   162  C          0.46714000       0.54875000       0.94567800
   163  C          0.96714000       0.95125000       0.05432200
   164  C          0.53286000       0.04875000       0.55432200
   165  H          0.18273300       0.40999600       0.45268100
   166  H          0.31726700       0.59000400       0.95268100
   167  H          0.81726700       0.90999600       0.04731900
   168  H          0.68273300       0.09000400       0.54731900
   169  H          0.04231700       0.49030600       0.42259500
   170  H          0.45768300       0.50969400       0.92259500
   171  H          0.95768300      -0.00969400       0.07740500
   172  H          0.54231700       0.00969400       0.57740500
   173  O          0.52154000       0.31463000       0.48287500
   174  O         -0.02154000       0.68537000       0.98287500
   175  O          0.47846000       0.81463000       0.01712500
   176  O          0.02154000       0.18537000       0.51712500
   177  C          0.85895000       0.31074000       0.44928700
   178  C          0.64105000       0.68926000       0.94928700
   179  C          0.14105000       0.81074000       0.05071300
   180  C          0.35895000       0.18926000       0.55071300
   181  H          0.78774300       0.28455600       0.42789600
   182  H          0.71225700       0.71544400       0.92789600
   183  H          0.21225700       0.78455600       0.07210400
   184  H          0.28774300       0.21544400       0.57210400
   185  H          0.92788400       0.20449900       0.45805900
   186  H          0.57211600       0.79550100       0.95805900
   187  H          0.07211600       0.70449900       0.04194100
   188  H          0.42788400       0.29550100       0.54194100
   189  C          0.95315000       0.59374000       0.46749700
   190  C          0.54685000       0.40626000       0.96749700
   191  C          0.04685000       0.09374000       0.03250300
   192  C          0.45315000       0.90626000       0.53250300
   193  C          0.69025000       0.38224000       0.47292600
   194  C          0.80975000       0.61776000       0.97292600
   195  C          0.30975000       0.88224000       0.02707400
   196  C          0.19025000       0.11776000       0.52707400
