data_QEHNIE
_symmetry_space_group_name_H-M    'P1'
_symmetry_Int_Tables_number       1
loop_
_symmetry_equiv_pos_site_id
_symmetry_equiv_pos_as_xyz
1 x,y,z
_cell_length_a                   5.69004
_cell_length_b                   8.34106
_cell_length_c                   17.511112
_cell_angle_alpha                79.9813
_cell_angle_beta                 82.4832
_cell_angle_gamma                89.9912
loop_
_atom_site_label
_atom_site_type_symbol
_atom_site_fract_x
_atom_site_fract_y
_atom_site_fract_z
     1  I          0.37031700       0.74118800       0.65565000
     2  Br         0.79071700       0.11101200       0.36375000
     3  C          0.20120000       0.84858500       0.56977000
     4  C          0.29220000       0.84378400       0.49247000
     5  H          0.43128900       0.78987900       0.48065800
     6  C          0.17040000       0.92070000       0.43341400
     7  H          0.23012400       0.92151700       0.38137800
     8  C          0.96520000      -0.00430000       0.45138400
     9  C          0.87580000       0.00180100       0.52521000
    10  H          0.73341800       0.05380800       0.53531100
    11  C         -0.00760000       0.93170000       0.58671100
    12  H          0.93341300       0.93993100       0.63798400
    13  O          0.79360000       0.46630000       0.71401100
    14  O          0.48230000       0.19801900       0.64929000
    15  O          0.68560000       0.64630000       0.37451000
    16  O          0.36030000       0.38720000       0.30809000
    17  N          0.14330000       0.30920000       0.69899000
    18  N          0.02730000       0.52920000       0.31801000
    19  C          0.30840000       0.27230000       0.63861200
    20  C          0.94460000       0.40920000       0.67161200
    21  C          0.18940000       0.28930000       0.77981000
    22  H          0.19043900       0.39481700       0.79563600
    23  H          0.34394100       0.24235800       0.78401700
    24  C         -0.00840000       0.17420000       0.83648000
    25  H          0.83297000       0.21871800       0.83800400
    26  C          0.09014000       0.14752000       0.91900000
    27  H          0.26144300       0.13964600       0.91213500
    28  H          0.02203600       0.04879700       0.95220700
    29  C          0.00540000       0.31500100       0.95920000
    30  H          0.93101700       0.39030300       0.92229000
    31  H          0.14229900       0.36651700       0.97204600
    32  H          0.89537900       0.28207200       0.00579800
    33  C          0.00650000       0.01230000       0.81571500
    34  H          0.16262400       0.97022100       0.82135000
    35  H         -0.01669000       0.02049800       0.76114100
    36  C          0.82950000       0.89770000       0.86341700
    37  H          0.92360300       0.82692000       0.89714100
    38  H          0.74122500       0.96350000       0.89707900
    39  C          0.65830000       0.79260000       0.84920000
    40  H          0.68573900       0.79909000       0.79288500
    41  H          0.51179400       0.84889900       0.85948000
    42  C          0.59430000       0.62660000       0.87771700
    43  H          0.70283800       0.55891200       0.85148200
    44  H          0.43659600       0.60605200       0.86793200
    45  H          0.60257400       0.60228400       0.93294000
    46  C          0.20230000       0.34420000       0.56851000
    47  C         -0.00130000       0.42320000       0.58341000
    48  C          0.87170000       0.50320000       0.52811000
    49  H          0.73352000       0.55615500       0.54153700
    50  C          0.95270000       0.50120000       0.45821200
    51  C          0.87360000       0.57030000       0.37721200
    52  C          0.20230000       0.44120000       0.34661000
    53  C          0.17340000       0.41920000       0.43121200
    54  C          0.30140000       0.34120000       0.48701100
    55  H          0.44162800       0.28854700       0.47412700
    56  C         -0.01640000       0.56220000       0.23461100
    57  H          0.07723300       0.48631300       0.20773300
    58  H          0.81835000       0.53491500       0.23369500
    59  C          0.03117000       0.72244600       0.18893100
    60  H          0.90841300       0.78606100       0.21384100
    61  C          0.94739000       0.72490000       0.10591000
    62  H          0.78117300       0.69238000       0.11313300
    63  H          0.96278300       0.83520700       0.07665600
    64  C          0.08010000       0.62001000       0.06200000
    65  H          0.01545300       0.51113800       0.07738900
    66  H          0.24232500       0.62150000       0.07158200
    67  H          0.07241000       0.65634800       0.00728800
    68  C          0.24840000       0.81140000       0.19561300
    69  H          0.36754100       0.72867500       0.19185600
    70  H          0.22585500       0.82235100       0.25020500
    71  C          0.37760000       0.96030000       0.15771600
    72  H          0.54285400       0.93145500       0.15464400
    73  H          0.34068900       0.97797300       0.10432500
    74  C          0.36740000       0.12030000       0.18041200
    75  H          0.36802700       0.10905400       0.23644300
    76  H          0.22223900       0.17298100       0.16743800
    77  C          0.58360000       0.22540000       0.13711900
    78  H          0.71814100       0.15679600       0.13178100
    79  H          0.61538200       0.30754500       0.16620600
    80  H          0.54911600       0.27459300       0.08610700
