data_QEHTIG
_symmetry_space_group_name_H-M    'P1'
_symmetry_Int_Tables_number       1
loop_
_symmetry_equiv_pos_site_id
_symmetry_equiv_pos_as_xyz
1 x,y,z
_cell_length_a                   9.9282
_cell_length_b                   18.1782
_cell_length_c                   13.7972
_cell_angle_alpha                90.0
_cell_angle_beta                 90.083
_cell_angle_gamma                90.0
loop_
_atom_site_label
_atom_site_type_symbol
_atom_site_fract_x
_atom_site_fract_y
_atom_site_fract_z
     1  I          0.43911300       0.18936415       0.66656200
     2  I          0.56088700       0.68936415       0.83343800
     3  I          0.56088700       0.81063585       0.33343800
     4  I          0.43911300       0.31063585       0.16656200
     5  I          0.16433300       0.10160200       0.54800200
     6  I          0.83566700       0.60160200       0.95199800
     7  I          0.83566700       0.89839800       0.45199800
     8  I          0.16433300       0.39839800       0.04800200
     9  I          0.42920300      -0.00627200       0.63761200
    10  I          0.57079700       0.49372800       0.86238800
    11  I          0.57079700       0.00627200       0.36238800
    12  I          0.42920300       0.50627200       0.13761200
    13  C          0.37545000       0.09922000       0.57773000
    14  C          0.62455000       0.59922000       0.92227000
    15  C          0.62455000       0.90078000       0.42227000
    16  C          0.37545000       0.40078000       0.07773000
    17  H          0.42315000       0.10402000       0.51423000
    18  H          0.57685000       0.60402000       0.98577000
    19  H          0.57685000       0.89598000       0.48577000
    20  H          0.42315000       0.39598000       0.01423000
    21  Br         0.46566500       0.81635800       0.67884400
    22  Br         0.53433500       0.31635800       0.82115600
    23  Br         0.53433500       0.18364200       0.32115600
    24  Br         0.46566500       0.68364200       0.17884400
    25  P          0.86481100       0.06865600       0.82239700
    26  P          0.13518900       0.56865600       0.67760300
    27  P          0.13518900       0.93134400       0.17760300
    28  P          0.86481100       0.43134400       0.32239700
    29  C         -0.00146000       0.11492000       0.88573000
    30  C          0.00146000       0.61492000       0.61427000
    31  C          0.00146000       0.88508000       0.11427000
    32  C         -0.00146000       0.38508000       0.38573000
    33  C          0.98254000       0.13392000       0.98243000
    34  C          0.01746000       0.63392000       0.51757000
    35  C          0.01746000       0.86608000       0.01757000
    36  C          0.98254000       0.36608000       0.48243000
    37  H          0.90264000       0.12042000       0.01583000
    38  H          0.09736000       0.62042000       0.48417000
    39  H          0.09736000       0.87958000       0.98417000
    40  H          0.90264000       0.37958000       0.51583000
    41  C          0.08284000       0.17253000       0.03003000
    42  C          0.91716000       0.67253000       0.46997000
    43  C          0.91716000       0.82747000       0.96997000
    44  C          0.08284000       0.32747000       0.53003000
    45  H          0.07074000       0.18633000       0.09583000
    46  H          0.92926000       0.68633000       0.40417000
    47  H          0.92926000       0.81367000       0.90417000
    48  H          0.07074000       0.31367000       0.59583000
    49  C          0.19944000       0.19092000       0.98293000
    50  C          0.80056000       0.69092000       0.51707000
    51  C          0.80056000       0.80908000       0.01707000
    52  C          0.19944000       0.30908000       0.48293000
    53  H          0.26854000       0.21662000       0.01653000
    54  H          0.73146000       0.71662000       0.48347000
    55  H          0.73146000       0.78338000       0.98347000
    56  H          0.26854000       0.28338000       0.51653000
    57  C          0.21654000       0.17213000       0.88633000
    58  C          0.78346000       0.67213000       0.61367000
    59  C          0.78346000       0.82787000       0.11367000
    60  C          0.21654000       0.32787000       0.38633000
    61  H          0.29734000       0.18513000       0.85373000
    62  H          0.70266000       0.68513000       0.64627000
    63  H          0.70266000       0.81487000       0.14627000
    64  H          0.29734000       0.31487000       0.35373000
    65  C          0.11704000       0.13482000       0.83763000
    66  C          0.88296000       0.63482000       0.66237000
    67  C          0.88296000       0.86518000       0.16237000
    68  C          0.11704000       0.36518000       0.33763000
    69  H          0.12864000       0.12252000       0.77133000
    70  H          0.87136000       0.62252000       0.72867000
    71  H          0.87136000       0.87748000       0.22867000
    72  H          0.12864000       0.37748000       0.27133000
    73  C          0.90784000       0.97718000       0.78703000
    74  C          0.09216000       0.47718000       0.71297000
    75  C          0.09216000       0.02282000       0.21297000
    76  C          0.90784000       0.52282000       0.28703000
    77  C          0.80294000       0.92938000       0.76333000
    78  C          0.19706000       0.42938000       0.73667000
    79  C          0.19706000       0.07062000       0.23667000
    80  C          0.80294000       0.57062000       0.26333000
    81  H          0.71224000       0.94288000       0.77623000
    82  H          0.28776000       0.44288000       0.72377000
    83  H          0.28776000       0.05712000       0.22377000
    84  H          0.71224000       0.55712000       0.27623000
    85  C          0.83125000       0.86268000       0.72153000
    86  C          0.16875000       0.36268000       0.77847000
    87  C          0.16875000       0.13732000       0.27847000
    88  C          0.83125000       0.63732000       0.22153000
    89  H          0.75985000       0.82988000       0.70573000
    90  H          0.24015000       0.32988000       0.79427000
    91  H          0.24015000       0.17012000       0.29427000
    92  H          0.75985000       0.67012000       0.20573000
    93  C          0.96315000       0.84268000       0.70213000
    94  C          0.03685000       0.34268000       0.79787000
    95  C          0.03685000       0.15732000       0.29787000
    96  C          0.96315000       0.65732000       0.20213000
    97  H          0.98195000       0.79708000       0.67153000
    98  H          0.01805000       0.29708000       0.82847000
    99  H          0.01805000       0.20292000       0.32847000
   100  H          0.98195000       0.70292000       0.17153000
   101  C          0.06705000       0.88917000       0.72713000
   102  C          0.93295000       0.38917000       0.77287000
   103  C          0.93295000       0.11083000       0.27287000
   104  C          0.06705000       0.61083000       0.22713000
   105  H          0.15755000       0.87487000       0.71533000
   106  H          0.84245000       0.37487000       0.78467000
   107  H          0.84245000       0.12513000       0.28467000
   108  H          0.15755000       0.62513000       0.21533000
   109  C          0.04004000       0.95668000       0.76953000
   110  C          0.95996000       0.45668000       0.73047000
   111  C          0.95996000       0.04332000       0.23047000
   112  C          0.04004000       0.54332000       0.26953000
   113  H          0.11174000       0.98878000       0.78643000
   114  H          0.88826000       0.48878000       0.71357000
   115  H          0.88826000       0.01122000       0.21357000
   116  H          0.11174000       0.51122000       0.28643000
   117  C          0.82984000       0.11972000       0.71453000
   118  C          0.17016000       0.61972000       0.78547000
   119  C          0.17016000       0.88028000       0.28547000
   120  C          0.82984000       0.38028000       0.21453000
   121  C          0.82154000       0.19582000       0.71743000
   122  C          0.17846000       0.69582000       0.78257000
   123  C          0.17846000       0.80418000       0.28257000
   124  C          0.82154000       0.30418000       0.21743000
   125  H          0.83284000       0.22072000       0.77743000
   126  H          0.16716000       0.72072000       0.72257000
   127  H          0.16716000       0.77928000       0.22257000
   128  H          0.83284000       0.27928000       0.27743000
   129  C          0.79694000       0.23583000       0.63423000
   130  C          0.20306000       0.73583000       0.86577000
   131  C          0.20306000       0.76417000       0.36577000
   132  C          0.79694000       0.26417000       0.13423000
   133  H          0.78994000       0.28793000       0.63703000
   134  H          0.21006000       0.78793000       0.86297000
   135  H          0.21006000       0.71207000       0.36297000
   136  H          0.78994000       0.21207000       0.13703000
   137  C          0.78254000       0.19963000       0.54743000
   138  C          0.21746000       0.69963000       0.95257000
   139  C          0.21746000       0.80037000       0.45257000
   140  C          0.78254000       0.30037000       0.04743000
   141  H          0.76584000       0.22703000       0.48993000
   142  H          0.23416000       0.72703000       0.01007000
   143  H          0.23416000       0.77297000       0.51007000
   144  H          0.76584000       0.27297000      -0.01007000
   145  C          0.79215000       0.12413000       0.54273000
   146  C          0.20785000       0.62413000       0.95727000
   147  C          0.20785000       0.87587000       0.45727000
   148  C          0.79215000       0.37587000       0.04273000
   149  H          0.78335000       0.09983000       0.48213000
   150  H          0.21665000       0.59983000       0.01787000
   151  H          0.21665000       0.90017000       0.51787000
   152  H          0.78335000       0.40017000       0.98213000
   153  C          0.81464000       0.08362000       0.62593000
   154  C          0.18536000       0.58362000       0.87407000
   155  C          0.18536000       0.91638000       0.37407000
   156  C          0.81464000       0.41638000       0.12593000
   157  H          0.81964000       0.03152000       0.62283000
   158  H          0.18036000       0.53152000       0.87717000
   159  H          0.18036000       0.96848000       0.37717000
   160  H          0.81964000       0.46848000       0.12283000
   161  C          0.72804000       0.06762000       0.90583000
   162  C          0.27196000       0.56762000       0.59417000
   163  C          0.27196000       0.93238000       0.09417000
   164  C          0.72804000       0.43238000       0.40583000
   165  C          0.72845000       0.01573000       0.97973000
   166  C          0.27155000       0.51573000       0.52027000
   167  C          0.27155000       0.98427000       0.02027000
   168  C          0.72845000       0.48427000       0.47973000
   169  H          0.78455000       0.97347000       0.97533000
   170  H          0.21545000       0.47347000       0.52467000
   171  H          0.21545000       0.02653000       0.02467000
   172  H          0.78455000       0.52653000       0.47533000
   173  C          0.64615000       0.02583000       0.06043000
   174  C          0.35385000       0.52583000       0.43957000
   175  C          0.35385000       0.97417000       0.93957000
   176  C          0.64615000       0.47417000       0.56043000
   177  H          0.64485000       0.99017000       0.11083000
   178  H          0.35515000       0.49017000       0.38917000
   179  H          0.35515000       0.00983000       0.88917000
   180  H          0.64485000       0.50983000       0.61083000
   181  C          0.56605000       0.08843000       0.06653000
   182  C          0.43395000       0.58843000       0.43347000
   183  C          0.43395000       0.91157000       0.93347000
   184  C          0.56605000       0.41157000       0.56653000
   185  H          0.51315000       0.09673000       0.12283000
   186  H          0.48685000       0.59673000       0.37717000
   187  H          0.48685000       0.90327000       0.87717000
   188  H          0.51315000       0.40327000       0.62283000
   189  C          0.56285000       0.13813000      -0.00836000
   190  C          0.43715000       0.63813000       0.50836000
   191  C          0.43715000       0.86187000       0.00836000
   192  C          0.56285000       0.36187000       0.49164000
   193  H          0.50515000       0.17973000      -0.00426000
   194  H          0.49485000       0.67973000       0.50426000
   195  H          0.49485000       0.82027000       0.00426000
   196  H          0.50515000       0.32027000       0.49574000
   197  C          0.64234000       0.12872000       0.91063000
   198  C          0.35766000       0.62872000       0.58937000
   199  C          0.35766000       0.87128000       0.08937000
   200  C          0.64234000       0.37128000       0.41063000
   201  H          0.63894000       0.16312000       0.85883000
   202  H          0.36106000       0.66312000       0.64117000
   203  H          0.36106000       0.83688000       0.14117000
   204  H          0.63894000       0.33688000       0.35883000
