data_QEHTOM
_symmetry_space_group_name_H-M    'P1'
_symmetry_Int_Tables_number       1
loop_
_symmetry_equiv_pos_site_id
_symmetry_equiv_pos_as_xyz
1 x,y,z
_cell_length_a                   10.1172
_cell_length_b                   18.8754
_cell_length_c                   13.9873
_cell_angle_alpha                90.0
_cell_angle_beta                 90.473
_cell_angle_gamma                90.0
loop_
_atom_site_label
_atom_site_type_symbol
_atom_site_fract_x
_atom_site_fract_y
_atom_site_fract_z
     1  I          0.43390200       0.18874200       0.84002200
     2  I          0.56609800       0.68874200       0.65997800
     3  I          0.56609800       0.81125800       0.15997800
     4  I          0.43390200       0.31125800       0.34002200
     5  I          0.42398300      -0.00152200       0.86528200
     6  I          0.57601700       0.49847800       0.63471800
     7  I          0.57601700       0.00152200       0.13471800
     8  I          0.42398300       0.50152200       0.36528200
     9  I          0.16086300       0.10262200       0.95572200
    10  I          0.83913700       0.60262200       0.54427800
    11  I          0.83913700       0.89737800       0.04427800
    12  I          0.16086300       0.39737800       0.45572200
    13  C          0.37084000       0.10002000       0.92703000
    14  C          0.62916000       0.60002000       0.57297000
    15  C          0.62916000       0.89998000       0.07297000
    16  C          0.37084000       0.39998000       0.42703000
    17  H          0.41804000       0.10392000       0.98993000
    18  H          0.58196000       0.60392000       0.51007000
    19  H          0.58196000       0.89608000       0.01007000
    20  H          0.41804000       0.39608000       0.48993000
    21  I          0.53050300       0.31718200       0.67535200
    22  I          0.46949700       0.81718200       0.82464800
    23  I          0.46949700       0.68281800       0.32464800
    24  I          0.53050300       0.18281800       0.17535200
    25  P          0.13360900       0.93086400       0.32244700
    26  P          0.86639100       0.43086400       0.17755300
    27  P          0.86639100       0.06913600       0.67755300
    28  P          0.13360900       0.56913600       0.82244700
    29  C          0.08744000       0.01962000       0.28743000
    30  C          0.91256000       0.51962000       0.21257000
    31  C          0.91256000       0.98038000       0.71257000
    32  C          0.08744000       0.48038000       0.78743000
    33  C          0.95466000       0.03823000       0.27213000
    34  C          0.04534000       0.53823000       0.22787000
    35  C          0.04534000       0.96177000       0.72787000
    36  C          0.95466000       0.46177000       0.77213000
    37  H          0.88636000       0.00613000       0.28873000
    38  H          0.11364000       0.50613000       0.21127000
    39  H          0.11364000      -0.00613000       0.71127000
    40  H          0.88636000       0.49387000       0.78873000
    41  C          0.92316000       0.10363000       0.23263000
    42  C          0.07684000       0.60363000       0.26737000
    43  C          0.07684000       0.89637000       0.76737000
    44  C          0.92316000       0.39637000       0.73263000
    45  H          0.83326000       0.11633000       0.22243000
    46  H          0.16674000       0.61633000       0.27757000
    47  H          0.16674000       0.88367000       0.77757000
    48  H          0.83326000       0.38367000       0.72243000
    49  C          0.02384000       0.15063000       0.20793000
    50  C          0.97616000       0.65063000       0.29207000
    51  C          0.97616000       0.84937000       0.79207000
    52  C          0.02384000       0.34937000       0.70793000
    53  H          0.00214000       0.19503000       0.17963000
    54  H         -0.00214000       0.69503000       0.32037000
    55  H         -0.00214000       0.80497000       0.82037000
    56  H          0.00214000       0.30497000       0.67963000
    57  C          0.15644000       0.13293000       0.22443000
    58  C          0.84356000       0.63293000       0.27557000
    59  C          0.84356000       0.86707000       0.77557000
    60  C          0.15644000       0.36707000       0.72443000
    61  H          0.22434000       0.16553000       0.20853000
    62  H          0.77566000       0.66553000       0.29147000
    63  H          0.77566000       0.83447000       0.79147000
    64  H          0.22434000       0.33447000       0.70853000
    65  C          0.18874000       0.06763000       0.26443000
    66  C          0.81126000       0.56763000       0.23557000
    67  C          0.81126000       0.93237000       0.73557000
    68  C          0.18874000       0.43237000       0.76443000
    69  H          0.27864000       0.05553000       0.27603000
    70  H          0.72136000       0.55553000       0.22397000
    71  H          0.72136000       0.94447000       0.72397000
    72  H          0.27864000       0.44447000       0.77603000
    73  C          0.00244000       0.88438000       0.38463000
    74  C         -0.00244000       0.38438000       0.11537000
    75  C         -0.00244000       0.11562000       0.61537000
    76  C          0.00244000       0.61562000       0.88463000
    77  C          0.88766000       0.86267000       0.33443000
    78  C          0.11234000       0.36267000       0.16557000
    79  C          0.11234000       0.13733000       0.66557000
    80  C          0.88766000       0.63733000       0.83443000
    81  H          0.87756000       0.87367000       0.26853000
    82  H          0.12244000       0.37367000       0.23147000
    83  H          0.12244000       0.12633000       0.73147000
    84  H          0.87756000       0.62633000       0.76853000
    85  C          0.78916000       0.82487000       0.38173000
    86  C          0.21084000       0.32487000       0.11827000
    87  C          0.21084000       0.17513000       0.61827000
    88  C          0.78916000       0.67513000       0.88173000
    89  H          0.71106000       0.81127000       0.34833000
    90  H          0.28894000       0.31127000       0.15167000
    91  H          0.28894000       0.18873000       0.65167000
    92  H          0.71106000       0.68873000       0.84833000
    93  C          0.80536000       0.80717000       0.47803000
    94  C          0.19464000       0.30717000       0.02197000
    95  C          0.19464000       0.19283000       0.52197000
    96  C          0.80536000       0.69283000       0.97803000
    97  H          0.73846000       0.78127000       0.50993000
    98  H          0.26154000       0.28127000      -0.00993000
    99  H          0.26154000       0.21873000       0.49007000
   100  H          0.73846000       0.71873000       0.00993000
   101  C          0.91856000       0.82727000       0.52693000
   102  C          0.08144000       0.32727000       0.97307000
   103  C          0.08144000       0.17273000       0.47307000
   104  C          0.91856000       0.67273000       0.02693000
   105  H          0.92966000       0.81437000       0.59213000
   106  H          0.07034000       0.31437000       0.90787000
   107  H          0.07034000       0.18563000       0.40787000
   108  H          0.92966000       0.68563000       0.09213000
   109  C          0.01674000       0.86627000       0.48143000
   110  C          0.98326000       0.36627000       0.01857000
   111  C          0.98326000       0.13373000       0.51857000
   112  C          0.01674000       0.63373000       0.98143000
   113  H          0.09334000       0.88067000       0.51603000
   114  H          0.90666000       0.38067000       0.98397000
   115  H          0.90666000       0.11933000       0.48397000
   116  H          0.09334000       0.61933000       0.01603000
   117  C          0.26993000       0.93398000       0.40633000
   118  C          0.73007000       0.43398000       0.09367000
   119  C          0.73007000       0.06602000       0.59367000
   120  C          0.26993000       0.56602000       0.90633000
   121  C          0.35734000       0.87587000       0.41203000
   122  C          0.64266000       0.37587000       0.08797000
   123  C          0.64266000       0.12413000       0.58797000
   124  C          0.35734000       0.62413000       0.91203000
   125  H          0.36114000       0.84247000       0.36143000
   126  H          0.63886000       0.34247000       0.13857000
   127  H          0.63886000       0.15753000       0.63857000
   128  H          0.36114000       0.65753000       0.86143000
   129  C          0.43854000       0.86807000       0.49293000
   130  C          0.56146000       0.36807000       0.00707000
   131  C          0.56146000       0.13193000       0.50707000
   132  C          0.43854000       0.63193000      -0.00707000
   133  H          0.49714000       0.82887000       0.49773000
   134  H          0.50286000       0.32887000       0.00227000
   135  H          0.50286000       0.17113000       0.50227000
   136  H          0.49714000       0.67113000      -0.00227000
   137  C          0.43314000       0.91807000       0.56693000
   138  C          0.56686000       0.41807000       0.93307000
   139  C          0.56686000       0.08193000       0.43307000
   140  C          0.43314000       0.58193000       0.06693000
   141  H          0.48604000       0.91167000       0.62263000
   142  H          0.51396000       0.41167000       0.87737000
   143  H          0.51396000       0.08833000       0.37737000
   144  H          0.48604000       0.58833000       0.12263000
   145  C          0.35054000       0.97737000       0.55943000
   146  C          0.64946000       0.47737000       0.94057000
   147  C          0.64946000       0.02263000       0.44057000
   148  C          0.35054000       0.52263000       0.05943000
   149  H          0.35104000       0.01223000       0.60843000
   150  H          0.64896000       0.51223000       0.89157000
   151  H          0.64896000       0.98777000       0.39157000
   152  H          0.35104000       0.48777000       0.10843000
   153  C          0.26784000       0.98528000       0.48033000
   154  C          0.73216000       0.48528000       0.01967000
   155  C          0.73216000       0.01472000       0.51967000
   156  C          0.26784000       0.51472000       0.98033000
   157  H          0.21004000       0.02492000       0.47593000
   158  H          0.78996000       0.52492000       0.02407000
   159  H          0.78996000       0.97508000       0.52407000
   160  H          0.21004000       0.47508000       0.97593000
   161  C          0.16963000       0.88098000       0.21503000
   162  C          0.83037000       0.38098000       0.28497000
   163  C          0.83037000       0.11902000       0.78497000
   164  C          0.16963000       0.61902000       0.71503000
   165  C          0.18744000       0.91597000       0.12693000
   166  C          0.81256000       0.41597000       0.37307000
   167  C          0.81256000       0.08403000       0.87307000
   168  C          0.18744000       0.58403000       0.62693000
   169  H          0.18444000       0.96617000       0.12353000
   170  H          0.81556000       0.46617000       0.37647000
   171  H          0.81556000       0.03383000       0.87647000
   172  H          0.18444000       0.53383000       0.62353000
   173  C          0.20944000       0.87577000       0.04493000
   174  C          0.79056000       0.37577000       0.45507000
   175  C          0.79056000       0.12423000       0.95507000
   176  C          0.20944000       0.62423000       0.54493000
   177  H          0.21974000       0.89887000       0.98507000
   178  H          0.78026000       0.39887000       0.51493000
   179  H          0.78026000       0.10113000       0.01493000
   180  H          0.21974000       0.60113000       0.48507000
   181  C          0.21654000       0.80247000       0.04963000
   182  C          0.78346000       0.30247000       0.45037000
   183  C          0.78346000       0.19753000       0.95037000
   184  C          0.21654000       0.69753000       0.54963000
   185  H          0.23174000       0.77577000      -0.00683000
   186  H          0.76826000       0.27577000       0.50683000
   187  H          0.76826000       0.22423000       0.00683000
   188  H          0.23174000       0.72423000       0.49317000
   189  C          0.20134000       0.76787000       0.13713000
   190  C          0.79866000       0.26787000       0.36287000
   191  C          0.79866000       0.23213000       0.86287000
   192  C          0.20134000       0.73213000       0.63713000
   193  H          0.20714000       0.71767000       0.14053000
   194  H          0.79286000       0.21767000       0.35947000
   195  H          0.79286000       0.28233000       0.85947000
   196  H          0.20714000       0.78233000       0.64053000
   197  C          0.17774000       0.80738000       0.21953000
   198  C          0.82226000       0.30738000       0.28047000
   199  C          0.82226000       0.19262000       0.78047000
   200  C          0.17774000       0.69262000       0.71953000
   201  H          0.16704000       0.78398000       0.27903000
   202  H          0.83296000       0.28398000       0.22097000
   203  H          0.83296000       0.21602000       0.72097000
   204  H          0.16704000       0.71602000       0.77903000
