data_QEHXUX
_symmetry_space_group_name_H-M    'P1'
_symmetry_Int_Tables_number       1
loop_
_symmetry_equiv_pos_site_id
_symmetry_equiv_pos_as_xyz
1 x,y,z
_cell_length_a                   13.8376
_cell_length_b                   17.3998
_cell_length_c                   11.5535
_cell_angle_alpha                90.0
_cell_angle_beta                 108.3297
_cell_angle_gamma                90.0
loop_
_atom_site_label
_atom_site_type_symbol
_atom_site_fract_x
_atom_site_fract_y
_atom_site_fract_z
     1  O          0.03116100       0.42174700       0.12896110
     2  O          0.96883900       0.92174700       0.37103890
     3  O          0.96883900       0.57825300       0.87103890
     4  O          0.03116100       0.07825300       0.62896110
     5  H          0.97568300       0.43861200       0.14051900
     6  H          0.02431700       0.93861200       0.35948100
     7  H          0.02431700       0.56138800       0.85948100
     8  H          0.97568300       0.06138800       0.64051900
     9  H          0.01281700       0.39651300       0.06920000
    10  H         -0.01281700       0.89651300       0.43080000
    11  H         -0.01281700       0.60348700       0.93080000
    12  H          0.01281700       0.10348700       0.56920000
    13  C          0.38025110       0.42418900       0.73501140
    14  C          0.61974890       0.92418900       0.76498860
    15  C          0.61974890       0.57581100       0.26498860
    16  C          0.38025110       0.07581100       0.23501140
    17  C          0.39756110       0.35976900       0.67438130
    18  C          0.60243890       0.85976900       0.82561870
    19  C          0.60243890       0.64023100       0.32561870
    20  C          0.39756110       0.14023100       0.17438130
    21  C          0.32932110       0.35505900       0.55319140
    22  C          0.67067890       0.85505900       0.94680860
    23  C          0.67067890       0.64494100       0.44680860
    24  C          0.32932110       0.14494100       0.05319140
    25  H          0.32940000       0.31410000       0.49890000
    26  H          0.67060000       0.81410000       0.00110000
    27  H          0.67060000       0.68590000       0.50110000
    28  H          0.32940000       0.18590000      -0.00110000
    29  C          0.26375110       0.41573900       0.52342140
    30  C          0.73624890       0.91573900       0.97657860
    31  C          0.73624890       0.58426100       0.47657860
    32  C          0.26375110       0.08426100       0.02342140
    33  C          0.47449110       0.30135800       0.72908130
    34  C          0.52550890       0.80135800       0.77091870
    35  C          0.52550890       0.69864200       0.27091870
    36  C          0.47449110       0.19864200       0.22908130
    37  C          0.44515120       0.21777900       0.71762150
    38  C          0.55484880       0.71777900       0.78237850
    39  C          0.55484880       0.78222100       0.28237850
    40  C          0.44515120       0.28222100       0.21762150
    41  C          0.54548120       0.17402900       0.77394150
    42  C          0.45451880       0.67402900       0.72605850
    43  C          0.45451880       0.82597100       0.22605850
    44  C          0.54548120       0.32597100       0.27394150
    45  C          0.61582120       0.23469900       0.85431150
    46  C          0.38417880       0.73469900       0.64568850
    47  C          0.38417880       0.76530100       0.14568850
    48  C          0.61582120       0.26530100       0.35431150
    49  C          0.57215110       0.31016800       0.80054130
    50  C          0.42784890       0.81016800       0.69945870
    51  C          0.42784890       0.68983200       0.19945870
    52  C          0.57215110       0.18983200       0.30054130
    53  C          0.63233110       0.43885900       0.75209140
    54  C          0.36766890       0.93885900       0.74790860
    55  C          0.36766890       0.56114100       0.24790860
    56  C          0.63233110       0.06114100       0.25209140
    57  C          0.63238110       0.38070900       0.83262130
    58  C          0.36761890       0.88070900       0.66737870
    59  C          0.36761890       0.61929100       0.16737870
    60  C          0.63238110       0.11929100       0.33262130
    61  C          0.69572110       0.39788900       0.95367140
    62  C          0.30427890       0.89788900       0.54632860
    63  C          0.30427890       0.60211100       0.04632860
    64  C          0.69572110       0.10211100       0.45367140
    65  H          0.70690000       0.36340000       0.02030000
    66  H          0.29310000       0.86340000       0.47970000
    67  H          0.29310000       0.63660000       0.97970000
    68  H          0.70690000       0.13660000       0.52030000
    69  C          0.73809110       0.46886900       0.96301140
    70  C          0.26190890       0.96886900       0.53698860
    71  C          0.26190890       0.53113100       0.03698860
    72  C          0.73809110       0.03113100       0.46301140
    73  C          0.43090120       0.44885100       0.86416140
    74  C          0.56909880       0.94885100       0.63583860
    75  C          0.56909880       0.55114900       0.13583860
    76  C          0.43090120       0.05114900       0.36416140
    77  H          0.45050000       0.40340000       0.91630000
    78  H          0.54950000       0.90340000       0.58370000
    79  H          0.54950000       0.59660000       0.08370000
    80  H          0.45050000       0.09660000       0.41630000
    81  H          0.38360000       0.48020000       0.89190000
    82  H          0.61640000       0.98020000       0.60810000
    83  H          0.61640000       0.51980000       0.10810000
    84  H          0.38360000       0.01980000       0.39190000
    85  H          0.49170000       0.47910000       0.86880000
    86  H          0.50830000       0.97910000       0.63120000
    87  H          0.50830000       0.52090000       0.13120000
    88  H          0.49170000       0.02090000       0.36880000
    89  C          0.58204120       0.44148100       0.61690140
    90  C          0.41795880       0.94148100       0.88309860
    91  C          0.41795880       0.55851900       0.38309860
    92  C          0.58204120       0.05851900       0.11690140
    93  H          0.57400000       0.38910000       0.58420000
    94  H          0.42600000       0.88910000       0.91580000
    95  H          0.42600000       0.61090000       0.41580000
    96  H          0.57400000       0.11090000       0.08420000
    97  H          0.62420000       0.47140000       0.57920000
    98  H          0.37580000       0.97140000       0.92080000
    99  H          0.37580000       0.52860000       0.42080000
   100  H          0.62420000       0.02860000       0.07920000
   101  H          0.51500000       0.46570000       0.59890000
   102  H          0.48500000       0.96570000       0.90110000
   103  H          0.48500000       0.53430000       0.40110000
   104  H          0.51500000       0.03430000       0.09890000
   105  C          0.18144110       0.43236900       0.41051140
   106  C          0.81855890       0.93236900       0.08948860
   107  C          0.81855890       0.56763100       0.58948860
   108  C          0.18144110       0.06763100       0.91051140
   109  C          0.80222110       0.50831900       0.07483150
   110  C          0.19777890       0.00831900       0.42516850
   111  C          0.19777890       0.49168100       0.92516850
   112  C          0.80222110       0.99168100       0.57483150
   113  F          0.39882800       0.19479600       0.60233900
   114  F          0.60117200       0.69479600       0.89766100
   115  F          0.60117200       0.80520400       0.39766100
   116  F          0.39882800       0.30520400       0.10233900
   117  F          0.38010800       0.20146600       0.78110110
   118  F          0.61989200       0.70146600       0.71889890
   119  F          0.61989200       0.79853400       0.21889890
   120  F          0.38010800       0.29853400       0.28110110
   121  F          0.58347800       0.15174600       0.68550900
   122  F          0.41652200       0.65174600       0.81449100
   123  F          0.41652200       0.84825400       0.31449100
   124  F          0.58347800       0.34825400       0.18550900
   125  F          0.53395800       0.11110500       0.83521900
   126  F          0.46604200       0.61110500       0.66478100
   127  F          0.46604200       0.88889500       0.16478100
   128  F          0.53395800       0.38889500       0.33521900
   129  F          0.71370700       0.22384600       0.86002100
   130  F          0.28629300       0.72384600       0.63997900
   131  F          0.28629300       0.77615400       0.13997900
   132  F          0.71370700       0.27615400       0.36002100
   133  F          0.61372800       0.22745600       0.97133800
   134  F          0.38627200       0.72745600       0.52866200
   135  F          0.38627200       0.77254400       0.02866200
   136  F          0.61372800       0.27254400       0.47133800
   137  O          0.16696800       0.37780600       0.32767100
   138  O          0.83303200       0.87780600       0.17232900
   139  O          0.83303200       0.62219400       0.67232900
   140  O          0.16696800       0.12219400       0.82767100
   141  H          0.12370000       0.39250000       0.26260000
   142  H          0.87630000       0.89250000       0.23740000
   143  H          0.87630000       0.60750000       0.73740000
   144  H          0.12370000       0.10750000       0.76260000
   145  O          0.13214900       0.49149700       0.39735110
   146  O          0.86785100       0.99149700       0.10264890
   147  O          0.86785100       0.50850300       0.60264890
   148  O          0.13214900       0.00850300       0.89735110
   149  O          0.85033900       0.46928700       0.16396100
   150  O          0.14966100       0.96928700       0.33603900
   151  O          0.14966100       0.53071300       0.83603900
   152  O          0.85033900       0.03071300       0.66396100
   153  O          0.80041900       0.58168700       0.06937110
   154  O          0.19958100       0.08168700       0.43062890
   155  O          0.19958100       0.41831300       0.93062890
   156  O          0.80041900       0.91831300       0.56937110
   157  H          0.82890000       0.59990000       0.13910000
   158  H          0.17110000       0.09990000       0.36090000
   159  H          0.17110000       0.40010000       0.86090000
   160  H          0.82890000       0.90010000       0.63910000
   161  S          0.28365300       0.47890200       0.64322400
   162  S          0.71634700       0.97890200       0.85677600
   163  S          0.71634700       0.52109800       0.35677600
   164  S          0.28365300       0.02109800       0.14322400
   165  S          0.70304300       0.51549200       0.82475400
   166  S          0.29695700       0.01549200       0.67524600
   167  S          0.29695700       0.48450800       0.17524600
   168  S          0.70304300       0.98450800       0.32475400
   169  C          0.02649110       0.21270900       0.00376140
   170  C          0.97350890       0.71270900       0.49623860
   171  C          0.97350890       0.78729100      -0.00376140
   172  C          0.02649110       0.28729100       0.50376140
   173  C          0.00056120       0.13783900       0.02545150
   174  C         -0.00056120       0.63783900       0.47454850
   175  C         -0.00056120       0.86216100       0.97454850
   176  C          0.00056120       0.36216100       0.52545150
   177  H          0.94940000       0.11070000       0.96480000
   178  H          0.05060000       0.61070000       0.53520000
   179  H          0.05060000       0.88930000       0.03520000
   180  H          0.94940000       0.38930000       0.46480000
   181  C          0.04994120       0.10357900       0.13583150
   182  C          0.95005880       0.60357900       0.36416850
   183  C          0.95005880       0.89642100       0.86416850
   184  C          0.04994120       0.39642100       0.63583150
   185  H          0.03250000       0.05250000       0.15050000
   186  H          0.96750000       0.55250000       0.34950000
   187  H          0.96750000       0.94750000       0.84950000
   188  H          0.03250000       0.44750000       0.65050000
   189  C          0.15134120       0.21113900       0.20053150
   190  C          0.84865880       0.71113900       0.29946850
   191  C          0.84865880       0.78886100       0.79946850
   192  C          0.15134120       0.28886100       0.70053150
   193  H          0.20480000       0.23590000       0.26160000
   194  H          0.79520000       0.73590000       0.23840000
   195  H          0.79520000       0.76410000       0.73840000
   196  H          0.20480000       0.26410000       0.76160000
   197  C          0.10644120       0.24837900       0.09224150
   198  C          0.89355880       0.74837900       0.40775850
   199  C          0.89355880       0.75162100       0.90775850
   200  C          0.10644120       0.25162100       0.59224150
   201  H          0.12950000       0.29780000       0.07780000
   202  H          0.87050000       0.79780000       0.42220000
   203  H          0.87050000       0.70220000       0.92220000
   204  H          0.12950000       0.20220000       0.57780000
   205  C          0.96624110       0.25545900       0.89364140
   206  C          0.03375890       0.75545900       0.60635860
   207  C          0.03375890       0.74454100       0.10635860
   208  C          0.96624110       0.24454100       0.39364140
   209  C          0.91883120       0.21894100       0.78416150
   210  C          0.08116880       0.71894100       0.71583850
   211  C          0.08116880       0.78105900       0.21583850
   212  C          0.91883120       0.28105900       0.28416150
   213  H          0.92650000       0.16520000       0.77580000
   214  H          0.07350000       0.66520000       0.72420000
   215  H          0.07350000       0.83480000       0.22420000
   216  H          0.92650000       0.33480000       0.27580000
   217  C          0.86024130       0.26209100       0.68730160
   218  C          0.13975870       0.76209100       0.81269840
   219  C          0.13975870       0.73790900       0.31269840
   220  C          0.86024130       0.23790900       0.18730160
   221  H          0.82740000       0.23860000       0.61080000
   222  H          0.17260000       0.73860000       0.88920000
   223  H          0.17260000       0.76140000       0.38920000
   224  H          0.82740000       0.26140000       0.11080000
   225  C          0.85008120       0.34002100       0.70321150
   226  C          0.14991880       0.84002100       0.79678850
   227  C          0.14991880       0.65997900       0.29678850
   228  C          0.85008120       0.15997900       0.20321150
   229  H          0.80900000       0.37080000       0.63840000
   230  H          0.19100000       0.87080000       0.86160000
   231  H          0.19100000       0.62920000       0.36160000
   232  H          0.80900000       0.12920000       0.13840000
   233  C          0.90101130       0.37254100       0.81552150
   234  C          0.09898870       0.87254100       0.68447850
   235  C          0.09898870       0.62745900       0.18447850
   236  C          0.90101130       0.12745900       0.31552150
   237  H          0.89470000       0.42630000       0.82570000
   238  H          0.10530000       0.92630000       0.67430000
   239  H          0.10530000       0.57370000       0.17430000
   240  H          0.89470000       0.07370000       0.32570000
   241  N          0.95837100       0.33177800       0.90971120
   242  N          0.04162900       0.83177800       0.59028880
   243  N          0.04162900       0.66822200       0.09028880
   244  N          0.95837100       0.16822200       0.40971120
   245  N          0.12180100       0.14068800       0.22248120
   246  N          0.87819900       0.64068800       0.27751880
   247  N          0.87819900       0.85931200       0.77751880
   248  N          0.12180100       0.35931200       0.72248120
