data_QEKWUZ
_symmetry_space_group_name_H-M    'P1'
_symmetry_Int_Tables_number       1
loop_
_symmetry_equiv_pos_site_id
_symmetry_equiv_pos_as_xyz
1 x,y,z
_cell_length_a                   9.83441
_cell_length_b                   11.990912
_cell_length_c                   14.466914
_cell_angle_alpha                85.55201
_cell_angle_beta                 73.68101
_cell_angle_gamma                88.68101
loop_
_atom_site_label
_atom_site_type_symbol
_atom_site_fract_x
_atom_site_fract_y
_atom_site_fract_z
     1  C          0.01722000       0.24326190       0.98333840
     2  C          0.98278000       0.75673810       0.01666160
     3  H          0.05320000       0.19360000       0.93210000
     4  H          0.94680000       0.80640000       0.06790000
     5  H          0.01500000       0.31850000       0.95390000
     6  H          0.98500000       0.68150000       0.04610000
     7  C          0.26382000       0.27302000       0.98940830
     8  C          0.73618000       0.72698000       0.01059170
     9  H          0.32160000       0.27610000       0.03270000
    10  H          0.67840000       0.72390000       0.96730000
    11  H          0.26260000       0.34510000       0.95580000
    12  H          0.73740000       0.65490000       0.04420000
    13  H          0.30210000       0.21860000       0.94360000
    14  H          0.69790000       0.78140000       0.05640000
    15  O          0.73234160       0.92131880       0.18310110
    16  O          0.26765840       0.07868120       0.81689890
    17  O          0.64396160       0.03499130       0.06031110
    18  O          0.35603840       0.96500870       0.93968890
    19  S          0.70696500       0.02940400       0.13834400
    20  S          0.29303500       0.97059600       0.86165600
    21  N          0.67202180       0.06384140       0.49774120
    22  N          0.32797820       0.93615860       0.50225880
    23  O          0.41713150       0.33167120       0.43378100
    24  O          0.58286850       0.66832880       0.56621900
    25  N          0.53743190       0.22169150       0.55741130
    26  N          0.46256810       0.77830850       0.44258870
    27  O          0.52075160       0.29413120       0.70166110
    28  O          0.47924840       0.70586880       0.29833890
    29  C          0.64372000       0.12071170       0.66147150
    30  C          0.35628000       0.87928830       0.33852850
    31  C          0.59172000       0.14881170       0.48598150
    32  C          0.40828000       0.85118830       0.51401850
    33  N          0.69194180       0.08105140       0.73677120
    34  N          0.30805820       0.91894860       0.26322880
    35  C          0.62342000       0.09692170       0.32114150
    36  C          0.37658000       0.90307830       0.67885850
    37  H          0.67760000       0.03750000       0.33650000
    38  H          0.32240000       0.96250000       0.66350000
    39  C          0.56022000       0.17032170       0.39129150
    40  C          0.43978000       0.82967830       0.60870850
    41  N          0.86597190       0.09334150       0.09211120
    42  N          0.13402810       0.90665850       0.90788880
    43  C          0.47822000       0.25915170       0.36530150
    44  C          0.52178000       0.74084830       0.63469850
    45  C          0.56212000       0.21910170       0.64743150
    46  C          0.43788000       0.78089830       0.35256850
    47  C          0.69722000       0.05112170       0.58685150
    48  C          0.30278000       0.94887830       0.41314850
    49  N          0.77584180      -0.01054150       0.71356130
    50  N          0.22415820       0.01054150       0.28643870
    51  C          0.60662000       0.11136170       0.22899150
    52  C          0.39338000       0.88863830       0.77100850
    53  N          0.11327190       0.23991150       0.04674130
    54  N          0.88672810       0.76008850       0.95325870
    55  C          0.52302000       0.19811180       0.20463150
    56  C          0.47698000       0.80188820       0.79536850
    57  H          0.51090000       0.20660000       0.14300000
    58  H          0.48910000       0.79340000       0.85700000
    59  C          0.78102000       0.97060830       0.62271150
    60  C          0.21898000       0.02939170       0.37728850
    61  C          0.45852000       0.27127180       0.27318150
    62  C          0.54148000       0.72872820       0.72681850
    63  H          0.40170000       0.32880000       0.25790000
    64  H          0.59830000       0.67120000       0.74210000
    65  C          0.95312000       0.09372190       0.15986150
    66  C          0.04688000       0.90627810       0.84013850
    67  H          0.95230000       0.02010000       0.19300000
    68  H          0.04770000       0.97990000       0.80700000
    69  H          0.91510000       0.14700000       0.20780000
    70  H          0.08490000       0.85300000       0.79220000
    71  C          0.86502000       0.20721180       0.04189160
    72  C          0.13498000       0.79278820       0.95810840
    73  H          0.82570000       0.26080000       0.08930000
    74  H          0.17430000       0.73920000       0.91070000
    75  H          0.80540000       0.20650000      -0.00130000
    76  H          0.19460000       0.79350000       0.00130000
    77  C          0.35562000       0.43500180       0.40243160
    78  C          0.64438000       0.56499820       0.59756840
    79  H          0.28320000       0.41800000       0.37190000
    80  H          0.71680000       0.58200000       0.62810000
    81  H          0.42820000       0.48010000       0.35640000
    82  H          0.57180000       0.51990000       0.64360000
    83  C          0.86702000       0.87740820       0.57099150
    84  C          0.13298000       0.12259180       0.42900850
    85  H          0.92740000       0.90820000       0.50960000
    86  H          0.07260000       0.09180000       0.49040000
    87  H          0.80310000       0.82470000       0.55740000
    88  H          0.19690000       0.17530000       0.44260000
    89  C          0.10642000       0.12642180       0.10191160
    90  C          0.89358000       0.87357820       0.89808840
    91  H          0.16460000       0.12760000       0.14600000
    92  H          0.83540000       0.87240000       0.85400000
    93  H          0.14490000       0.07030000       0.05680000
    94  H          0.85510000       0.92970000       0.94320000
    95  C          0.66152000       0.11988190       0.83364150
    96  C          0.33848000       0.88011810       0.16635850
    97  H          0.60560000       0.18690000       0.83710000
    98  H          0.39440000       0.81310000       0.16290000
    99  H          0.74880000       0.13510000       0.84760000
   100  H          0.25120000       0.86490000       0.15240000
   101  H          0.61000000       0.06320000       0.87990000
   102  H          0.39000000       0.93680000       0.12010000
   103  C          0.29193000       0.49695190       0.49125170
   104  C          0.70807000       0.50304810       0.50874830
   105  H          0.21640000       0.45340000       0.53450000
   106  H          0.78360000       0.54660000       0.46550000
   107  H          0.25540000       0.56760000       0.47300000
   108  H          0.74460000       0.43240000       0.52700000
   109  H          0.36340000       0.50930000       0.52290000
   110  H          0.63660000       0.49070000       0.47710000
   111  C          0.95913000       0.81448000       0.62609170
   112  C          0.04087000       0.18552000       0.37390830
   113  H          0.89910000       0.78260000       0.68720000
   114  H          0.10090000       0.21740000       0.31280000
   115  H          0.02310000       0.86690000       0.64010000
   116  H          0.97690000       0.13310000       0.35990000
   117  C          0.04593000       0.72118000       0.57101170
   118  C          0.95407000       0.27882000       0.42898830
   119  H          0.98320000       0.66640000       0.56060000
   120  H          0.01680000       0.33360000       0.43940000
   121  H          0.10480000       0.68660000       0.60790000
   122  H          0.89520000       0.31340000       0.39210000
   123  H          0.10430000       0.75200000       0.50990000
   124  H          0.89570000       0.24800000       0.49010000
   125  H          0.49130000       0.27720000       0.54081800
   126  H          0.50870000       0.72280000       0.45918200
   127  H          0.08130000       0.29320000       0.09101900
   128  H          0.91870000       0.70680000       0.90898100
   129  S          0.86447600       0.45768400       0.19633400
   130  S          0.13552400       0.54231600       0.80366600
   131  C          0.04242000       0.57083180       0.25000150
   132  C          0.95758000       0.42916820       0.74999850
   133  C          0.90342000       0.58080180       0.24506150
   134  C          0.09658000       0.41919820       0.75493850
   135  O          0.83875180       0.48606140       0.10400120
   136  O          0.16124820       0.51393860       0.89599880
   137  C          0.81842000       0.67160180       0.27524150
   138  C          0.18158000       0.32839820       0.72475850
   139  H          0.72600000       0.67670000       0.27050000
   140  H          0.27400000       0.32330000       0.72950000
   141  N          0.02128190       0.40085150       0.17955130
   142  N          0.97871810       0.59914850       0.82044870
   143  O          0.23762160       0.44212140       0.20141120
   144  O          0.76237840       0.55787860       0.79858880
   145  C          0.11132000       0.46520180       0.20836150
   146  C          0.88868000       0.53479820       0.79163850
   147  C          0.87772000       0.75531190       0.31312160
   148  C          0.12228000       0.24468810       0.68687840
   149  H          0.82410000       0.81810000       0.33420000
   150  H          0.17590000       0.18190000       0.66580000
   151  C          0.01662000       0.74647190       0.31991160
   152  C          0.98338000       0.25352810       0.68008840
   153  H          0.05320000       0.80300000       0.34640000
   154  H          0.94680000       0.19700000       0.65360000
   155  O          0.75542180       0.38994140       0.26833130
   156  O          0.24457820       0.61005860       0.73166870
   157  C          0.10122000       0.65468190       0.28770160
   158  C          0.89878000       0.34531810       0.71229840
   159  H          0.19410000       0.64970000       0.29130000
   160  H          0.80590000       0.35030000       0.70870000
   161  O          0.57482000       0.38145160       0.92836140
   162  O          0.42518000       0.61854840       0.07163860
   163  H          0.66010000       0.38160000       0.90130000
   164  H          0.33990000       0.61840000       0.09870000
   165  C          0.54643000       0.45022000       0.00704190
   166  C          0.45357000       0.54978000      -0.00704190
   167  H          0.63520000       0.47710000       0.01380000
   168  H          0.36480000       0.52290000       0.98620000
   169  H          0.49930000       0.40630000       0.06610000
   170  H          0.50070000       0.59370000       0.93390000
