data_QEKZEM
_symmetry_space_group_name_H-M    'P1'
_symmetry_Int_Tables_number       1
loop_
_symmetry_equiv_pos_site_id
_symmetry_equiv_pos_as_xyz
1 x,y,z
_cell_length_a                   10.7382
_cell_length_b                   9.1002
_cell_length_c                   7.77901
_cell_angle_alpha                83.6342
_cell_angle_beta                 74.0093
_cell_angle_gamma                68.9382
loop_
_atom_site_label
_atom_site_type_symbol
_atom_site_fract_x
_atom_site_fract_y
_atom_site_fract_z
     1  N          0.31677150       0.66116170       0.34852000
     2  N          0.68322850       0.33883830       0.65148000
     3  C          0.45648180       0.59432000       0.28982000
     4  C          0.54351820       0.40568000       0.71018000
     5  C          0.54802000       0.67172000       0.29622000
     6  C          0.45198000       0.32828000       0.70378000
     7  C          0.48962000       0.82442000       0.36763000
     8  C          0.51038000       0.17558000       0.63237000
     9  C          0.34962000       0.89162000       0.42633000
    10  C          0.65038000       0.10838000       0.57367000
    11  C          0.26672000       0.80552000       0.41393000
    12  C          0.73328000       0.19448000       0.58607000
    13  C          0.69372000       0.59472000       0.23073000
    14  C          0.30628000       0.40528000       0.76927000
    15  N          0.42338150       0.36467160       0.20992000
    16  N          0.57661850       0.63532840       0.79008000
    17  C          0.51248170       0.43692000       0.21852000
    18  C          0.48751830       0.56308000       0.78148000
    19  C          0.65710180       0.36332000       0.15892000
    20  C          0.34289820       0.63668000       0.84108000
    21  C          0.70752000       0.20932000       0.09333000
    22  C          0.29248000       0.79068000       0.90667000
    23  C          0.61702000       0.13712000       0.08693000
    24  C          0.38298000       0.86288000       0.91307000
    25  C          0.47572000       0.22002000       0.14563000
    26  C          0.52428000       0.77998000       0.85437000
    27  C          0.74592000       0.44752000       0.16663000
    28  C          0.25408000       0.55248000       0.83337000
    29  H          0.55120000       0.87820000       0.37630000
    30  H          0.44880000       0.12180000       0.62370000
    31  H          0.30820000      -0.00270000       0.47630000
    32  H          0.69180000       0.00270000       0.52370000
    33  H          0.16420000       0.85220000       0.45630000
    34  H          0.83580000       0.14780000       0.54370000
    35  H          0.75720000       0.65020000       0.23430000
    36  H          0.24280000       0.34980000       0.76570000
    37  H          0.80620000       0.15320000       0.05530000
    38  H          0.19380000       0.84680000       0.94470000
    39  H          0.64620000       0.03020000       0.04330000
    40  H          0.35380000       0.96980000       0.95670000
    41  H          0.40720000       0.17420000       0.14030000
    42  H          0.59280000       0.82580000       0.85970000
    43  H          0.84920000       0.39220000       0.12630000
    44  H          0.15080000       0.60780000       0.87370000
    45  N          0.13075170       0.49952000       0.28172000
    46  N          0.86924830       0.50048000       0.71828000
    47  C          0.07712180       0.48362000       0.47712000
    48  C          0.92287820       0.51638000       0.52288000
    49  H          0.23230000       0.47630000       0.25730000
    50  H          0.76770000       0.52370000       0.74270000
    51  H          0.07720000       0.60130000       0.24330000
    52  H          0.92280000       0.39870000       0.75670000
    53  H          0.12120000       0.42530000       0.22130000
    54  H          0.87880000       0.57470000       0.77870000
    55  H          0.09920000       0.55820000       0.53530000
    56  H          0.90080000       0.44180000       0.46470000
    57  H          0.12720000       0.37820000       0.51320000
    58  H          0.87280000       0.62180000       0.48680000
    59  N          0.07306150       0.15658170       0.21792000
    60  N          0.92693850       0.84341830       0.78208000
    61  O          0.07082150       0.16411160       0.37570190
    62  O          0.92917850       0.83588840       0.62429810
    63  O          0.11701150       0.24845170       0.10191180
    64  O          0.88298850       0.75154830       0.89808820
    65  O          0.03149160       0.06204160       0.16622000
    66  O          0.96850840       0.93795840       0.83378000
    67  O          0.05825160       0.20230170       0.77738000
    68  O          0.94174840       0.79769830       0.22262000
    69  H          0.07330000       0.18630000       0.89160000
    70  H          0.92670000       0.81370000       0.10840000
    71  H          0.03930000       0.12830000       0.75660000
    72  H          0.96070000       0.87170000       0.24340000
