data_QEMGEU01
_symmetry_space_group_name_H-M    'P1'
_symmetry_Int_Tables_number       1
loop_
_symmetry_equiv_pos_site_id
_symmetry_equiv_pos_as_xyz
1 x,y,z
_cell_length_a                   9.6502
_cell_length_b                   9.8792
_cell_length_c                   17.5163
_cell_angle_alpha                91.841
_cell_angle_beta                 101.201
_cell_angle_gamma                92.811
loop_
_atom_site_label
_atom_site_type_symbol
_atom_site_fract_x
_atom_site_fract_y
_atom_site_fract_z
     1  Br         0.39757400       0.22397300       0.37598200
     2  Br         0.60242600       0.77602700       0.62401800
     3  N          0.00973000       0.91987000       0.10314150
     4  N         -0.00973000       0.08013000       0.89685850
     5  C          0.08294000       0.81747000       0.06552000
     6  C          0.91706000       0.18253000       0.93448000
     7  H          0.14610000       0.77040000       0.10540000
     8  H          0.85390000       0.22960000       0.89460000
     9  H          0.13840000       0.86220000       0.03120000
    10  H          0.86160000       0.13780000       0.96880000
    11  H          0.01300000       0.75180000       0.03470000
    12  H         -0.01300000       0.24820000       0.96530000
    13  C          0.86857000       0.93517000       0.07289180
    14  C          0.13143000       0.06483000       0.92710820
    15  O          0.80217000       0.86497000       0.01878140
    16  O          0.19783000       0.13503000       0.98121860
    17  C          0.80067000       0.04753000       0.11354170
    18  C          0.19933000       0.95247000       0.88645830
    19  H          0.86460000       0.13160000       0.12130000
    20  H          0.13540000       0.86840000       0.87870000
    21  O          0.66898000       0.07582000       0.07005130
    22  O          0.33102000       0.92418000       0.92994870
    23  H          0.61010000       0.01130000       0.07240000
    24  H          0.38990000      -0.01130000       0.92760000
    25  N          0.78427000      -0.00193000       0.18888150
    26  N          0.21573000       0.00193000       0.81111850
    27  C          0.89457000      -0.00443000       0.24251170
    28  C          0.10543000       0.00443000       0.75748830
    29  C          0.04083000       0.03623000       0.23278170
    30  C          0.95917000       0.96377000       0.76721830
    31  C          0.09133000       0.00163000       0.16501170
    32  C          0.90867000      -0.00163000       0.83498830
    33  C          0.23164000       0.03953000       0.16072000
    34  C          0.76836000       0.96047000       0.83928000
    35  H          0.26560000       0.01740000       0.11470000
    36  H          0.73440000       0.98260000       0.88530000
    37  C          0.32053000       0.10843000       0.22222000
    38  C          0.67947000       0.89157000       0.77778000
    39  H          0.41560000       0.13270000       0.21890000
    40  H          0.58440000       0.86730000       0.78110000
    41  C          0.27063000       0.14163000       0.28831190
    42  C          0.72937000       0.85837000       0.71168810
    43  C          0.13193000       0.10863000       0.29438180
    44  C          0.86807000       0.89137000       0.70561820
    45  H          0.09880000       0.13500000       0.34000000
    46  H          0.90120000       0.86500000       0.66000000
    47  C          0.87397000       0.95027000       0.31996170
    48  C          0.12603000       0.04973000       0.68003830
    49  C          0.97377000       0.87437000       0.36525180
    50  C          0.02623000       0.12563000       0.63474820
    51  H          0.05800000       0.85460000       0.34760000
    52  H          0.94200000       0.14540000       0.65240000
    53  C          0.95166000       0.82696000       0.43632000
    54  C          0.04834000       0.17304000       0.56368000
    55  H          0.01980000       0.77450000       0.46690000
    56  H          0.98020000       0.22550000       0.53310000
    57  C          0.82896000       0.85736000       0.46182000
    58  C          0.17104000       0.14264000       0.53818000
    59  H          0.81340000       0.82580000       0.51020000
    60  H          0.18660000       0.17420000       0.48980000
    61  C          0.72926000       0.93286000       0.41752000
    62  C          0.27074000       0.06714000       0.58248000
    63  H          0.64610000       0.95360000       0.43580000
    64  H          0.35390000       0.04640000       0.56420000
    65  C          0.74997000       0.97866000       0.34632000
    66  C          0.25003000       0.02134000       0.65368000
    67  H          0.68030000       0.02920000       0.31550000
    68  H          0.31970000       0.97080000       0.68450000
    69  Br         0.92321400       0.42019600       0.40138200
    70  Br         0.07678600       0.57980400       0.59861800
    71  N          0.45613000       0.49337000       0.12029150
    72  N          0.54387000       0.50663000       0.87970850
    73  C          0.38444000       0.37167000       0.07722000
    74  C          0.61556000       0.62833000       0.92278000
    75  H          0.36590000       0.31450000       0.10880000
    76  H          0.63410000       0.68550000       0.89120000
    77  H          0.42920000       0.34180000       0.03680000
    78  H          0.57080000       0.65820000       0.96320000
    79  H          0.30340000       0.39510000       0.04500000
    80  H          0.69660000       0.60490000       0.95500000
    81  C          0.43023000       0.61447000       0.08699170
    82  C          0.56977000       0.38553000       0.91300830
    83  O          0.34783000       0.62547000       0.02521140
    84  O          0.65217000       0.37453000       0.97478860
    85  C          0.50553000       0.74267000       0.13114170
    86  C          0.49447000       0.25733000       0.86885830
    87  H          0.60960000       0.73130000       0.14550000
    88  H          0.39040000       0.26870000       0.85450000
    89  O          0.47902000       0.85358000       0.08391130
    90  O          0.52098000       0.14642000       0.91608870
    91  H          0.42810000       0.87810000       0.02900000
    92  H          0.57190000       0.12190000       0.97100000
    93  N          0.44693000       0.76207000       0.20091150
    94  N          0.55307000       0.23793000       0.79908850
    95  C          0.48613000       0.68217000       0.25658170
    96  C          0.51387000       0.31783000       0.74341830
    97  C          0.58153000       0.56917000       0.25226170
    98  C          0.41847000       0.43083000       0.74773830
    99  C          0.56143000       0.47847000       0.18705180
   100  C          0.43857000       0.52153000       0.81294820
   101  C          0.64594000       0.36587000       0.18912000
   102  C          0.35406000       0.63413000       0.81088000
   103  H          0.63110000       0.30240000       0.14600000
   104  H          0.36890000       0.69760000       0.85400000
   105  C          0.75074000       0.34717000       0.25382000
   106  C          0.24926000       0.65283000       0.74618000
   107  H          0.80620000       0.27010000       0.25570000
   108  H          0.19380000       0.72990000       0.74430000
   109  C          0.77354000       0.44087000       0.31512000
   110  C          0.22646000       0.55913000       0.68488000
   111  C          0.69033000       0.55007000       0.31612180
   112  C          0.30967000       0.44993000       0.68387820
   113  H          0.70650000       0.61220000       0.35990000
   114  H          0.29350000       0.38780000       0.64010000
   115  C          0.43143000       0.70257000       0.32968170
   116  C          0.56857000       0.29743000       0.67031830
   117  C          0.41894000       0.59627000       0.37922000
   118  C          0.58106000       0.40373000       0.62078000
   119  H          0.44790000       0.50910000       0.36700000
   120  H          0.55210000       0.49090000       0.63300000
   121  C          0.36464000       0.61726000       0.44602000
   122  C          0.63536000       0.38274000       0.55398000
   123  H          0.35460000       0.54370000       0.47860000
   124  H          0.64540000       0.45630000       0.52140000
   125  C          0.32483000       0.74406000       0.46572190
   126  C          0.67517000       0.25594000       0.53427810
   127  H          0.28970000       0.75870000       0.51220000
   128  H          0.71030000       0.24130000       0.48780000
   129  C          0.33674000       0.85047000       0.41652000
   130  C          0.66326000       0.14953000       0.58348000
   131  H          0.30930000       0.93800000       0.42950000
   132  H          0.69070000       0.06200000       0.57050000
   133  C          0.38813000       0.82957000       0.34905190
   134  C          0.61187000       0.17043000       0.65094810
   135  H          0.39390000       0.90250000       0.31550000
   136  H          0.60610000       0.09750000       0.68450000
   137  C          0.07124000       0.57934000       0.24032000
   138  C          0.92876000       0.42066000       0.75968000
   139  H          0.11640000       0.62460000       0.28790000
   140  H          0.88360000       0.37540000       0.71210000
   141  C          0.94844000       0.62743000       0.19722000
   142  C          0.05156000       0.37257000       0.80278000
   143  H          0.90870000       0.70510000       0.21570000
   144  H          0.09130000       0.29490000       0.78430000
   145  C          0.88424000       0.56194000       0.12742000
   146  C          0.11576000       0.43806000       0.87258000
   147  H          0.80090000       0.59550000       0.09770000
   148  H          0.19910000       0.40450000       0.90230000
   149  C          0.94074000       0.44744000       0.10072000
   150  C          0.05926000       0.55256000       0.89928000
   151  H          0.89600000       0.40250000       0.05290000
   152  H          0.10400000       0.59750000       0.94710000
   153  C          0.06194000       0.39904000       0.14373000
   154  C          0.93806000       0.60096000       0.85627000
   155  H          0.10050000       0.32030000       0.12560000
   156  H          0.89950000       0.67970000       0.87440000
   157  C          0.12754000       0.46514000       0.21353000
   158  C          0.87246000       0.53486000       0.78647000
   159  H          0.21130000       0.43170000       0.24290000
   160  H          0.78870000       0.56830000       0.75710000
