data_QENNAC
_symmetry_space_group_name_H-M    'P1'
_symmetry_Int_Tables_number       1
loop_
_symmetry_equiv_pos_site_id
_symmetry_equiv_pos_as_xyz
1 x,y,z
_cell_length_a                   5.42403
_cell_length_b                   26.117714
_cell_length_c                   9.36225
_cell_angle_alpha                90.0
_cell_angle_beta                 104.7152
_cell_angle_gamma                90.0
loop_
_atom_site_label
_atom_site_type_symbol
_atom_site_fract_x
_atom_site_fract_y
_atom_site_fract_z
     1  O          0.42602190       0.07025400       0.10245110
     2  O          0.07397810       0.57025400       0.39754890
     3  O          0.57397810       0.92974600       0.89754890
     4  O          0.92602190       0.42974600       0.60245110
     5  H          0.52530000       0.04517000       0.16341900
     6  H         -0.02530000       0.54517000       0.33658100
     7  H          0.47470000       0.95483000       0.83658100
     8  H          0.02530000       0.45483000       0.66341900
     9  O          0.74612000       0.07085400      -0.00916110
    10  O          0.75388000       0.57085400       0.50916110
    11  O          0.25388000       0.92914600       0.00916110
    12  O          0.24612000       0.42914600       0.49083890
    13  O          0.51642000       0.14230400       0.79511900
    14  O         -0.01642000       0.64230400       0.70488100
    15  O          0.48358000       0.85769600       0.20488100
    16  O          0.01642000       0.35769600       0.29511900
    17  H          0.61540000       0.11827000       0.78480000
    18  H          0.88460000       0.61827000       0.71520000
    19  H          0.38460000       0.88173000       0.21520000
    20  H          0.11540000       0.38173000       0.28480000
    21  C          0.54493000       0.08717500       0.00662130
    22  C          0.95507000       0.58717500       0.49337870
    23  C          0.45507000       0.91282500      -0.00662130
    24  C          0.04493000       0.41282500       0.50662130
    25  C          0.40573000       0.13145500       0.91293860
    26  C          0.09427000       0.63145500       0.58706140
    27  C          0.59427000       0.86854500       0.08706140
    28  C          0.90573000       0.36854500       0.41293860
    29  H          0.22030000       0.12136000       0.87138400
    30  H          0.27970000       0.62136000       0.62861600
    31  H          0.77970000       0.87864000       0.12861600
    32  H          0.72030000       0.37864000       0.37138400
    33  C          0.41722000       0.17801500       0.01201130
    34  C          0.08278000       0.67801500       0.48798870
    35  C          0.58278000       0.82198500      -0.01201130
    36  C          0.91722000       0.32198500       0.51201130
    37  C          0.24423000       0.18249500       0.09858140
    38  C          0.25577000       0.68249500       0.40141860
    39  C          0.75577000       0.81750500       0.90141860
    40  C          0.74423000       0.31750500       0.59858140
    41  H          0.12430000       0.15700000       0.09270000
    42  H          0.37570000       0.65700000       0.40730000
    43  H          0.87570000       0.84300000       0.90730000
    44  H          0.62430000       0.34300000       0.59270000
    45  C          0.26153000       0.22313500       0.19568140
    46  C          0.23847000       0.72313500       0.30431860
    47  C          0.73847000       0.77686500       0.80431860
    48  C          0.76153000       0.27686500       0.69568140
    49  H          0.15040000       0.22530000       0.25490000
    50  H          0.34960000       0.72530000       0.24510000
    51  H          0.84960000       0.77470000       0.74510000
    52  H          0.65040000       0.27470000       0.75490000
    53  C          0.44823000       0.26006500       0.20542150
    54  C          0.05177000       0.76006500       0.29457850
    55  C          0.55177000       0.73993500       0.79457850
    56  C          0.94823000       0.23993500       0.70542150
    57  H          0.45440000       0.28960000       0.26490000
    58  H          0.04560000       0.78960000       0.23510000
    59  H          0.54560000       0.71040000       0.73510000
    60  H          0.95440000       0.21040000       0.76490000
    61  C          0.61803000       0.25651500       0.11755150
    62  C          0.88197000       0.75651500       0.38244850
    63  C          0.38197000       0.74348500       0.88244850
    64  C          0.11803000       0.24348500       0.61755150
    65  H          0.75130000       0.28240000       0.12320000
    66  H          0.74870000       0.78240000       0.37680000
    67  H          0.24870000       0.71760000       0.87680000
    68  H          0.25130000       0.21760000       0.62320000
    69  C          0.60303000       0.21525500       0.02142140
    70  C          0.89697000       0.71525500       0.47857860
    71  C          0.39697000       0.78474500       0.97857860
    72  C          0.10303000       0.28474500       0.52142140
    73  H          0.72090000       0.21240000       0.96230000
    74  H          0.77910000       0.71240000       0.53770000
    75  H          0.27910000       0.78760000       0.03770000
    76  H          0.22090000       0.28760000       0.46230000
    77  O          0.35987190       0.00093400       0.72390110
    78  O          0.14012810       0.50093400       0.77609890
    79  O          0.64012810      -0.00093400       0.27609890
    80  O          0.85987190       0.49906600       0.22390110
    81  N          0.00503000       0.01005500       0.80679130
    82  N          0.49497000       0.51005500       0.69320870
    83  N         -0.00503000       0.98994500       0.19320870
    84  N          0.50503000       0.48994500       0.30679130
    85  H          0.05930000       0.98534000       0.87461900
    86  H          0.44070000       0.48534000       0.62538100
    87  H          0.94070000       0.01466000       0.12538100
    88  H          0.55930000       0.51466000       0.37461900
    89  H          0.86270000       0.02646000       0.80001800
    90  H          0.63730000       0.52646000       0.69998200
    91  H          0.13730000       0.97354000       0.19998200
    92  H          0.36270000       0.47354000       0.30001800
    93  N          0.85058000       0.08968400       0.61855120
    94  N          0.64942000       0.58968400       0.88144880
    95  N          0.14942000       0.91031600       0.38144880
    96  N          0.35058000       0.41031600       0.11855120
    97  C          0.15063000       0.02174500       0.71857140
    98  C          0.34937000       0.52174500       0.78142860
    99  C          0.84937000       0.97825500       0.28142860
   100  C          0.65063000       0.47825500       0.21857140
   101  C          0.05253000       0.06199500       0.60378140
   102  C          0.44747000       0.56199500       0.89621860
   103  C          0.94747000       0.93800500       0.39621860
   104  C          0.55253000       0.43800500       0.10378140
   105  C          0.76157000       0.12511500       0.51501150
   106  C          0.73843000       0.62511500      -0.01501150
   107  C          0.23843000       0.87488500       0.48498850
   108  C          0.26157000       0.37488500       0.01501150
   109  H          0.62160000       0.14500000       0.53200000
   110  H          0.87840000       0.64500000       0.96800000
   111  H          0.37840000       0.85500000       0.46800000
   112  H          0.12160000       0.35500000       0.03200000
   113  C          0.86417000       0.13371500       0.39551150
   114  C          0.63583000       0.63371500       0.10448850
   115  C          0.13583000       0.86628500       0.60448850
   116  C          0.36417000       0.36628500       0.89551150
   117  H          0.79620000       0.15890000       0.32340000
   118  H          0.70380000       0.65890000       0.17660000
   119  H          0.20380000       0.84110000       0.67660000
   120  H          0.29620000       0.34110000       0.82340000
   121  C          0.07103000       0.10489500       0.38275140
   122  C          0.42897000       0.60489500       0.11724860
   123  C          0.92897000       0.89510500       0.61724860
   124  C          0.57103000       0.39510500       0.88275140
   125  H          0.15150000       0.10990000       0.30230000
   126  H          0.34850000       0.60990000       0.19770000
   127  H          0.84850000       0.89010000       0.69770000
   128  H          0.65150000       0.39010000       0.80230000
   129  C          0.16933000       0.06841500       0.49005140
   130  C          0.33067000       0.56841500       0.00994860
   131  C          0.83067000       0.93158500       0.50994860
   132  C          0.66933000       0.43158500      -0.00994860
   133  H          0.31620000       0.04800000       0.48810000
   134  H          0.18380000       0.54800000       0.01190000
   135  H          0.68380000       0.95200000       0.51190000
   136  H          0.81620000       0.45200000      -0.01190000
