data_QEPWUF
_symmetry_space_group_name_H-M    'P1'
_symmetry_Int_Tables_number       1
loop_
_symmetry_equiv_pos_site_id
_symmetry_equiv_pos_as_xyz
1 x,y,z
_cell_length_a                   10.147401
_cell_length_b                   12.856201
_cell_length_c                   14.549401
_cell_angle_alpha                90.0
_cell_angle_beta                 92.92
_cell_angle_gamma                90.0
loop_
_atom_site_label
_atom_site_type_symbol
_atom_site_fract_x
_atom_site_fract_y
_atom_site_fract_z
     1  C          0.75508130       0.10578110       0.63476100
     2  C          0.24491870       0.60578110       0.86523900
     3  C          0.24491870       0.89421890       0.36523900
     4  C          0.75508130       0.39421890       0.13476100
     5  C          0.75906140       0.07071100       0.72642100
     6  C          0.24093860       0.57071100       0.77357900
     7  C          0.24093860       0.92928900       0.27357900
     8  C          0.75906140       0.42928900       0.22642100
     9  C          0.53228130       0.03049110       0.73826900
    10  C          0.46771870       0.53049110       0.76173100
    11  C          0.46771870       0.96950890       0.26173100
    12  C          0.53228130       0.46950890       0.23826900
    13  C          0.47610130       0.05178110       0.65303900
    14  C          0.52389870       0.55178110       0.84696100
    15  C          0.52389870       0.94821890       0.34696100
    16  C          0.47610130       0.44821890       0.15303900
    17  C          0.52763130       0.13579100       0.59543900
    18  C          0.47236870       0.63579100       0.90456100
    19  C          0.47236870       0.86420900       0.40456100
    20  C          0.52763130       0.36420900       0.09543900
    21  C          0.36849130       0.98304890       0.62963100
    22  C          0.63150870       0.48304890       0.87036900
    23  C          0.63150870       0.01695110       0.37036900
    24  C          0.36849130       0.51695110       0.12963100
    25  H          0.32090000       0.98550000       0.57330000
    26  H          0.67910000       0.48550000       0.92670000
    27  H          0.67910000       0.01450000       0.42670000
    28  H          0.32090000       0.51450000       0.07330000
    29  C          0.34205140       0.91422890       0.69670100
    30  C          0.65794860       0.41422890       0.80329900
    31  C          0.65794860       0.08577110       0.30329900
    32  C          0.34205140       0.58577110       0.19670100
    33  C          0.23938160       0.83078870       0.69635130
    34  C          0.76061840       0.33078870       0.80364870
    35  C          0.76061840       0.16921130       0.30364870
    36  C          0.23938160       0.66921130       0.19635130
    37  H          0.24510000       0.79470000       0.75420000
    38  H          0.75490000       0.29470000       0.74580000
    39  H          0.75490000       0.20530000       0.24580000
    40  H          0.24510000       0.70530000       0.25420000
    41  H          0.25370000       0.78260000       0.64740000
    42  H          0.74630000       0.28260000       0.85260000
    43  H          0.74630000       0.21740000       0.35260000
    44  H          0.25370000       0.71740000       0.14740000
    45  H          0.15350000       0.86150000       0.68720000
    46  H          0.84650000       0.36150000       0.81280000
    47  H          0.84650000       0.13850000       0.31280000
    48  H          0.15350000       0.63850000       0.18720000
    49  C          0.87637150       0.03289120       0.76707110
    50  C          0.12362850       0.53289120       0.73292890
    51  C          0.12362850       0.96710880       0.23292890
    52  C          0.87637150       0.46710880       0.26707110
    53  H          0.87870000       0.01130000       0.82810000
    54  H          0.12130000       0.51130000       0.67190000
    55  H          0.12130000       0.98870000       0.17190000
    56  H          0.87870000       0.48870000       0.32810000
    57  C         -0.01044850       0.02677130       0.71845120
    58  C          0.01044850       0.52677130       0.78154880
    59  C          0.01044850       0.97322870       0.28154880
    60  C         -0.01044850       0.47322870       0.21845120
    61  H          0.06780000       0.00270000       0.74700000
    62  H          0.93220000       0.50270000       0.75300000
    63  H          0.93220000      -0.00270000       0.25300000
    64  H          0.06780000       0.49730000       0.24700000
    65  C         -0.01407850       0.05653130       0.62757120
    66  C          0.01407850       0.55653130       0.87242880
    67  C          0.01407850       0.94346870       0.37242880
    68  C         -0.01407850       0.44346870       0.12757120
    69  H          0.06050000       0.04960000       0.59350000
    70  H          0.93950000       0.54960000       0.90650000
    71  H          0.93950000       0.95040000       0.40650000
    72  H          0.06050000       0.45040000       0.09350000
    73  C          0.87048140       0.09684120       0.58710110
    74  C          0.12951860       0.59684120       0.91289890
    75  C          0.12951860       0.90315880       0.41289890
    76  C          0.87048140       0.40315880       0.08710110
    77  H          0.86980000       0.11870000       0.52610000
    78  H          0.13020000       0.61870000       0.97390000
    79  H          0.13020000       0.88130000       0.47390000
    80  H          0.86980000       0.38130000       0.02610000
    81  C          0.30222140       0.21050120       0.56269100
    82  C          0.69777860       0.71050120       0.93730900
    83  C          0.69777860       0.78949880       0.43730900
    84  C          0.30222140       0.28949880       0.06269100
    85  H          0.29720000       0.28090000       0.58630000
    86  H          0.70280000       0.78090000       0.91370000
    87  H          0.70280000       0.71910000       0.41370000
    88  H          0.29720000       0.21910000       0.08630000
    89  H          0.27590000       0.16300000       0.61020000
    90  H          0.72410000       0.66300000       0.88980000
    91  H          0.72410000       0.83700000       0.38980000
    92  H          0.27590000       0.33700000       0.11020000
    93  C          0.21039140       0.19900120       0.47803110
    94  C          0.78960860       0.69900120       0.02196890
    95  C          0.78960860       0.80099880       0.52196890
    96  C          0.21039140       0.30099880       0.97803110
    97  H          0.21100000       0.12730000       0.45740000
    98  H          0.78900000       0.62730000       0.04260000
    99  H          0.78900000       0.87270000       0.54260000
   100  H          0.21100000       0.37270000       0.95740000
   101  H          0.12110000       0.21620000       0.49360000
   102  H          0.87890000       0.71620000       0.00640000
   103  H          0.87890000       0.78380000       0.50640000
   104  H          0.12110000       0.28380000      -0.00640000
   105  C          0.39011160       0.24938130       0.38412100
   106  C          0.60988840       0.74938130       0.11587900
   107  C          0.60988840       0.75061870       0.61587900
   108  C          0.39011160       0.25061870       0.88412100
   109  H          0.41670000       0.29870000       0.33820000
   110  H          0.58330000       0.79870000       0.16180000
   111  H          0.58330000       0.70130000       0.66180000
   112  H          0.41670000       0.20130000       0.83820000
   113  H          0.39930000       0.18000000       0.35900000
   114  H          0.60070000       0.68000000       0.14100000
   115  H          0.60070000       0.82000000       0.64100000
   116  H          0.39930000       0.32000000       0.85900000
   117  C          0.48019140       0.26012130       0.46909100
   118  C          0.51980860       0.76012130       0.03090900
   119  C          0.51980860       0.73987870       0.53090900
   120  C          0.48019140       0.23987870       0.96909100
   121  H          0.57030000       0.24460000       0.45450000
   122  H          0.42970000       0.74460000       0.04550000
   123  H          0.42970000       0.75540000       0.54550000
   124  H          0.57030000       0.25540000       0.95450000
   125  H          0.47730000       0.33090000       0.49210000
   126  H          0.52270000       0.83090000       0.00790000
   127  H          0.52270000       0.66910000       0.50790000
   128  H          0.47730000       0.16910000      -0.00790000
   129  C          0.16552000       0.24862150       0.31893120
   130  C          0.83448000       0.74862150       0.18106880
   131  C          0.83448000       0.75137850       0.68106880
   132  C          0.16552000       0.25137850       0.81893120
   133  H          0.17510000       0.17770000       0.29970000
   134  H          0.82490000       0.67770000       0.20030000
   135  H          0.82490000       0.82230000       0.70030000
   136  H          0.17510000       0.32230000       0.79970000
   137  H          0.19110000       0.29430000       0.27080000
   138  H          0.80890000       0.79430000       0.22920000
   139  H          0.80890000       0.70570000       0.72920000
   140  H          0.19110000       0.20570000       0.77080000
   141  H          0.07510000       0.26150000       0.33180000
   142  H          0.92490000       0.76150000       0.16820000
   143  H          0.92490000       0.73850000       0.66820000
   144  H          0.07510000       0.23850000       0.83180000
   145  N          0.65019110       0.15984900       0.58964800
   146  N          0.34980890       0.65984900       0.91035200
   147  N          0.34980890       0.84015100       0.41035200
   148  N          0.65019110       0.34015100       0.08964800
   149  N          0.64466130       0.07813100       0.77878800
   150  N          0.35533870       0.57813100       0.72121200
   151  N          0.35533870       0.92186900       0.22121200
   152  N          0.64466130       0.42186900       0.27878800
   153  H          0.66011700       0.05741400       0.83461300
   154  H          0.33988300       0.55741400       0.66538700
   155  H          0.33988300       0.94258600       0.16538700
   156  H          0.66011700       0.44258600       0.33461300
   157  N          0.43690110       0.18777100       0.53895800
   158  N          0.56309890       0.68777100       0.96104200
   159  N          0.56309890       0.81222900       0.46104200
   160  N          0.43690110       0.31222900       0.03895800
   161  N          0.25039120       0.26759900       0.40282800
   162  N          0.74960880       0.76759900       0.09717200
   163  N          0.74960880       0.73240100       0.59717200
   164  N          0.25039120       0.23240100       0.90282800
   165  S          0.45237400       0.92946700       0.79115200
   166  S          0.54762600       0.42946700       0.70884800
   167  S          0.54762600       0.07053300       0.20884800
   168  S          0.45237400       0.57053300       0.29115200
   169  C          0.21494160       0.51836120       0.48081100
   170  C          0.78505840       0.01836120       0.01918900
   171  C          0.78505840       0.48163880       0.51918900
   172  C          0.21494160       0.98163880       0.98081100
   173  C          0.15402000       0.62456150       0.47671140
   174  C          0.84598000       0.12456150       0.02328860
   175  C          0.84598000       0.37543850       0.52328860
   176  C          0.15402000       0.87543850       0.97671140
   177  H          0.08920000       0.62770000       0.42640000
   178  H          0.91080000       0.12770000       0.07360000
   179  H          0.91080000       0.37230000       0.57360000
   180  H          0.08920000       0.87230000       0.92640000
   181  H          0.22130000       0.67560000       0.46790000
   182  H          0.77870000       0.17560000       0.03210000
   183  H          0.77870000       0.32440000       0.53210000
   184  H          0.22130000       0.82440000       0.96790000
   185  H          0.11250000       0.63840000       0.53330000
   186  H          0.88750000       0.13840000       0.96670000
   187  H          0.88750000       0.36160000       0.46670000
   188  H          0.11250000       0.86160000       0.03330000
   189  O          0.17092130       0.45622900       0.41745900
   190  O          0.82907870       0.95622900       0.08254100
   191  O          0.82907870       0.54377100       0.58254100
   192  O          0.17092130       0.04377100       0.91745900
   193  H          0.20420000       0.39828000       0.42041700
   194  H          0.79580000       0.89828000       0.07958300
   195  H          0.79580000       0.60172000       0.57958300
   196  H          0.20420000       0.10172000       0.92041700
   197  O          0.30001150       0.49414120       0.53834900
   198  O          0.69998850      -0.00585880       0.96165100
   199  O          0.69998850       0.50585880       0.46165100
   200  O          0.30001150       0.00585880       0.03834900
