data_QESGOK
_symmetry_space_group_name_H-M    'P1'
_symmetry_Int_Tables_number       1
loop_
_symmetry_equiv_pos_site_id
_symmetry_equiv_pos_as_xyz
1 x,y,z
_cell_length_a                   10.5622
_cell_length_b                   18.4724
_cell_length_c                   9.3011
_cell_angle_alpha                93.911
_cell_angle_beta                 95.871
_cell_angle_gamma                85.052
loop_
_atom_site_label
_atom_site_type_symbol
_atom_site_fract_x
_atom_site_fract_y
_atom_site_fract_z
     1  S          0.92885000       0.18143000       0.62985000
     2  S          0.07115000       0.81857000       0.37015000
     3  O          0.89520000       0.24528000       0.55120000
     4  O          0.10480000       0.75472000       0.44880000
     5  O          0.82510000       0.13689000       0.63910000
     6  O          0.17490000       0.86311000       0.36090000
     7  O          0.03810000       0.14009000       0.58410000
     8  O          0.96190000       0.85991000       0.41590000
     9  O          0.26020000       0.36028000       0.85220000
    10  O          0.73980000       0.63972000       0.14780000
    11  N          0.09810000       0.30338000       0.73610000
    12  N          0.90190000       0.69662000       0.26390000
    13  C          0.97410000       0.21379000       0.81620000
    14  C          0.02590000       0.78621000       0.18380000
    15  C          0.05520000       0.27119000       0.85320000
    16  C          0.94480000       0.72881000       0.14680000
    17  C          0.08120000       0.29310000      -0.00280000
    18  C          0.91880000       0.70690000       0.00280000
    19  C          0.02620000       0.25910000       0.10020000
    20  C          0.97380000       0.74090000       0.89980000
    21  C          0.95020000       0.20110000       0.06120000
    22  C          0.04980000       0.79890000       0.93880000
    23  C          0.92310000       0.18031000       0.92120000
    24  C          0.07690000       0.81969000       0.07880000
    25  C          0.19220000       0.34910000       0.74020000
    26  C          0.80780000       0.65090000       0.25980000
    27  C          0.21420000       0.37920000       0.60230000
    28  C          0.78580000       0.62080000       0.39770000
    29  C          0.15750000       0.45230000       0.61240000
    30  C          0.84250000       0.54770000       0.38760000
    31  C          0.17460000       0.34520000       0.47830000
    32  C          0.82540000       0.65480000       0.52170000
    33  C          0.35240000       0.39830000       0.61040000
    34  C          0.64760000       0.60170000       0.38960000
    35  H          0.05580000       0.29150000       0.64220000
    36  H          0.94420000       0.70850000       0.35780000
    37  H          0.13520000       0.33090000       0.02290000
    38  H          0.86480000       0.66910000       0.97710000
    39  H          0.04180000       0.27610000       0.19860000
    40  H          0.95820000       0.72390000       0.80140000
    41  H          0.91830000       0.17680000       0.13450000
    42  H          0.08170000       0.82320000       0.86550000
    43  H          0.86850000       0.14240000       0.89440000
    44  H          0.13150000       0.85760000       0.10560000
    45  H          0.06940000       0.45540000       0.60640000
    46  H          0.93060000       0.54460000       0.39360000
    47  H          0.18300000       0.48080000       0.53480000
    48  H          0.81700000       0.51920000       0.46520000
    49  H          0.19140000       0.47670000       0.70160000
    50  H          0.80860000       0.52330000       0.29840000
    51  H          0.37700000       0.42340000       0.69950000
    52  H          0.62300000       0.57660000       0.30050000
    53  H          0.36740000       0.42830000       0.53290000
    54  H          0.63260000       0.57170000       0.46710000
    55  H          0.41030000       0.35470000       0.60090000
    56  H          0.58970000       0.64530000       0.39910000
    57  H          0.20060000       0.36730000       0.39670000
    58  H          0.79940000       0.63270000       0.60330000
    59  H          0.21910000       0.29530000       0.47570000
    60  H          0.78090000       0.70470000       0.52430000
    61  H          0.08820000       0.34070000       0.46830000
    62  H          0.91180000       0.65930000       0.53170000
    63  P          0.53673000       0.15362000       0.13794000
    64  P          0.46327000       0.84638000       0.86206000
    65  C          0.41920000       0.11499000       0.23010000
    66  C          0.58080000       0.88501000       0.76990000
    67  C          0.30310000       0.15679000       0.25120000
    68  C          0.69690000       0.84321000       0.74880000
    69  C          0.21210000       0.12310000       0.32320000
    70  C          0.78790000       0.87690000       0.67680000
    71  C          0.23620000       0.05310000       0.36320000
    72  C          0.76380000       0.94690000       0.63680000
    73  C          0.34420000       0.01171000       0.34120000
    74  C          0.65580000       0.98829000       0.65880000
    75  C          0.43710000       0.04610000       0.27120000
    76  C          0.56290000       0.95390000       0.72880000
    77  C          0.55310000       0.24379000       0.20110000
    78  C          0.44690000       0.75621000       0.79890000
    79  C          0.47020000       0.29910000       0.14520000
    80  C          0.52980000       0.70090000       0.85480000
    81  C          0.47020000       0.37010000       0.19620000
    82  C          0.52980000       0.62990000       0.80380000
    83  C          0.55930000       0.38910000       0.30730000
    84  C          0.44070000       0.61090000       0.69270000
    85  C          0.64720000       0.33710000       0.36420000
    86  C          0.35280000       0.66290000       0.63580000
    87  C          0.64220000       0.26610000       0.31620000
    88  C          0.35780000       0.73390000       0.68380000
    89  C          0.48810000       0.15659000       0.94890000
    90  C          0.51190000       0.84341000       0.05110000
    91  C          0.56210000       0.18881000       0.86080000
    92  C          0.43790000       0.81119000       0.13920000
    93  C          0.53320000       0.19010000       0.71380000
    94  C          0.46680000       0.80990000       0.28620000
    95  C          0.41620000       0.16710000       0.65680000
    96  C          0.58380000       0.83290000       0.34320000
    97  C          0.33710000       0.13710000       0.74080000
    98  C          0.66290000       0.86290000       0.25920000
    99  C          0.36810000       0.13269000       0.88880000
   100  C          0.63190000       0.86731000       0.11120000
   101  C          0.68010000       0.09788000       0.16020000
   102  C          0.31990000       0.90212000       0.83980000
   103  C          0.72610000       0.05491000       0.04620000
   104  C          0.27390000       0.94509000       0.95380000
   105  C          0.83220000       0.00869000       0.06020000
   106  C          0.16780000       0.99131000       0.93980000
   107  C          0.90410000       0.00039000       0.19420000
   108  C          0.09590000      -0.00039000       0.80580000
   109  C          0.85920000       0.04410000       0.30920000
   110  C          0.14080000       0.95590000       0.69080000
   111  C          0.74910000       0.08669000       0.29520000
   112  C          0.25090000       0.91331000       0.70480000
   113  H          0.28710000       0.20520000       0.21590000
   114  H          0.71290000       0.79480000       0.78410000
   115  H          0.13440000       0.15220000       0.34340000
   116  H          0.86560000       0.84780000       0.65660000
   117  H          0.17110000       0.03310000       0.40890000
   118  H          0.82890000       0.96690000       0.59110000
   119  H          0.35820000       0.96200000       0.36920000
   120  H          0.64180000       0.03800000       0.63080000
   121  H          0.51560000       0.01770000       0.25100000
   122  H          0.48440000       0.98230000       0.74900000
   123  H          0.41020000       0.28700000       0.06510000
   124  H          0.58980000       0.71300000       0.93490000
   125  H          0.40700000       0.40540000       0.15560000
   126  H          0.59300000       0.59460000       0.84440000
   127  H          0.56030000       0.43890000       0.34100000
   128  H          0.43970000       0.56110000       0.65900000
   129  H          0.71190000       0.35080000       0.43800000
   130  H          0.28810000       0.64920000       0.56200000
   131  H          0.69840000       0.22980000       0.36210000
   132  H          0.30160000       0.77020000       0.63790000
   133  H          0.31070000       0.11470000       0.94880000
   134  H          0.68930000       0.88530000       0.05120000
   135  H          0.26030000       0.11880000       0.69740000
   136  H          0.73970000       0.88120000       0.30260000
   137  H          0.39000000       0.17290000       0.55730000
   138  H          0.61000000       0.82710000       0.44270000
   139  H          0.59110000       0.20700000       0.65340000
   140  H          0.40890000       0.79300000       0.34660000
   141  H          0.63600000       0.21160000       0.90470000
   142  H          0.36400000       0.78840000       0.09530000
   143  H          0.67970000       0.05710000       0.95230000
   144  H          0.32030000       0.94290000       0.04770000
   145  H          0.86030000       0.98080000       0.97650000
   146  H          0.13970000       0.01920000       0.02350000
   147  H          0.97940000       0.96690000       0.20770000
   148  H          0.02060000       0.03310000       0.79230000
   149  H          0.90730000       0.04320000       0.40190000
   150  H          0.09270000       0.95680000       0.59810000
   151  H          0.71810000       0.11110000       0.38090000
   152  H          0.28190000       0.88890000       0.61910000
   153  O          0.82950000       0.46630000       0.90680000
   154  O          0.17050000       0.53370000       0.09320000
   155  C          0.77060000       0.46540000       0.76270000
   156  C          0.22940000       0.53460000       0.23730000
   157  C          0.70460000       0.42040000       0.76780000
   158  C          0.29540000       0.57960000       0.23220000
   159  C          0.69960000       0.39130000       0.88880000
   160  C          0.30040000       0.60870000       0.11120000
   161  C          0.73100000       0.41770000      -0.01130000
   162  C          0.26900000       0.58230000       0.01130000
   163  H          0.82780000       0.45010000       0.69110000
   164  H          0.17220000       0.54990000       0.30890000
   165  H          0.72120000       0.50800000       0.73530000
   166  H          0.27880000       0.49200000       0.26470000
   167  H          0.72620000       0.38230000       0.69220000
   168  H          0.27380000       0.61770000       0.30780000
   169  H          0.61810000       0.44040000       0.73130000
   170  H          0.38190000       0.55960000       0.26870000
   171  H          0.71640000       0.33750000       0.84850000
   172  H          0.28360000       0.66250000       0.15150000
   173  H          0.59680000       0.38950000       0.87580000
   174  H          0.40320000       0.61050000       0.12420000
   175  H          0.67150000       0.42670000       0.03430000
   176  H          0.32850000       0.57330000       0.96570000
   177  H          0.77500000       0.36500000       0.01910000
   178  H          0.22500000       0.63500000       0.98090000
