data_QEVWEW
_symmetry_space_group_name_H-M    'P1'
_symmetry_Int_Tables_number       1
loop_
_symmetry_equiv_pos_site_id
_symmetry_equiv_pos_as_xyz
1 x,y,z
_cell_length_a                   5.122101
_cell_length_b                   17.60802
_cell_length_c                   22.79033
_cell_angle_alpha                90.0
_cell_angle_beta                 90.0
_cell_angle_gamma                90.0
loop_
_atom_site_label
_atom_site_type_symbol
_atom_site_fract_x
_atom_site_fract_y
_atom_site_fract_z
     1  C          0.50000000       0.67435000       0.75000000
     2  C         -0.00000000       0.82565000       0.25000000
     3  C          0.50000000       0.32565000       0.25000000
     4  C         -0.00000000       0.17435000       0.75000000
     5  C          0.66981200       0.71553000       0.71503000
     6  C          0.83018800       0.78447000       0.21503000
     7  C          0.33018800       0.71553000       0.78497000
     8  C          0.16981200       0.78447000       0.28497000
     9  C          0.33018800       0.28447000       0.28497000
    10  C          0.16981200       0.21553000       0.78497000
    11  C          0.66981200       0.28447000       0.21503000
    12  C          0.83018800       0.21553000       0.71503000
    13  C          0.66921100       0.79363000       0.71312000
    14  C          0.83078900       0.70637000       0.21312000
    15  C          0.33078900       0.79363000       0.78688000
    16  C          0.16921100       0.70637000       0.28688000
    17  C          0.33078900       0.20637000       0.28688000
    18  C          0.16921100       0.29363000       0.78688000
    19  C          0.66921100       0.20637000       0.21312000
    20  C          0.83078900       0.29363000       0.71312000
    21  C          0.50000000       0.83204000       0.75000000
    22  C         -0.00000000       0.66796000       0.25000000
    23  C          0.50000000       0.16796000       0.25000000
    24  C          0.00000000       0.33204000       0.75000000
    25  F          0.50000000       0.90733000       0.75000000
    26  F         -0.00000000       0.59267000       0.25000000
    27  F          0.50000000       0.09267000       0.25000000
    28  F          0.00000000       0.40733000       0.75000000
    29  F          0.84091000       0.67793000       0.68182000
    30  F          0.65909000       0.82207000       0.18182000
    31  F          0.15909000       0.67793000       0.81818000
    32  F          0.34091000       0.82207000       0.31818000
    33  F          0.15909000       0.32207000       0.31818000
    34  F          0.34091000       0.17793000       0.81818000
    35  F          0.84091000       0.32207000       0.18182000
    36  F          0.65909000       0.17793000       0.68182000
    37  I          0.50000000       0.55668400       0.75000000
    38  I         -0.00000000       0.94331600       0.25000000
    39  I          0.50000000       0.44331600       0.25000000
    40  I         -0.00000000       0.05668400       0.75000000
    41  I          0.91626800       0.85240300       0.65598200
    42  I          0.58373200       0.64759700       0.15598200
    43  I          0.08373200       0.85240300       0.84401800
    44  I          0.41626800       0.64759700       0.34401800
    45  I          0.08373200       0.14759700       0.34401800
    46  I          0.41626800       0.35240300       0.84401800
    47  I          0.91626800       0.14759700       0.15598200
    48  I          0.58373200       0.35240300       0.65598200
    49  C          0.16891400       0.40995000       0.54493000
    50  C          0.33108600       0.09005000       0.04493000
    51  C          0.83108600       0.40995000       0.95507000
    52  C          0.66891400       0.09005000       0.45507000
    53  C          0.83108600       0.59005000       0.45507000
    54  C          0.66891400       0.90995000       0.95507000
    55  C          0.16891400       0.59005000       0.04493000
    56  C          0.33108600       0.90995000       0.54493000
    57  H          0.06250000       0.36890000       0.55450000
    58  H          0.43750000       0.13110000       0.05450000
    59  H          0.93750000       0.36890000       0.94550000
    60  H          0.56250000       0.13110000       0.44550000
    61  H          0.93750000       0.63110000       0.44550000
    62  H          0.56250000       0.86890000       0.94550000
    63  H          0.06250000       0.63110000       0.05450000
    64  H          0.43750000       0.86890000       0.55450000
    65  C          0.13911300       0.47535000       0.57403000
    66  C          0.36088700       0.02465000       0.07403000
    67  C          0.86088700       0.47535000       0.92597000
    68  C          0.63911300       0.02465000       0.42597000
    69  C          0.86088700       0.52465000       0.42597000
    70  C          0.63911300       0.97535000       0.92597000
    71  C          0.13911300       0.52465000       0.07403000
    72  C          0.36088700       0.97535000       0.57403000
    73  H          0.01510000       0.47840000       0.60370000
    74  H          0.48490000       0.02160000       0.10370000
    75  H         -0.01510000       0.47840000       0.89630000
    76  H          0.51510000       0.02160000       0.39630000
    77  H         -0.01510000       0.52160000       0.39630000
    78  H          0.51510000       0.97840000       0.89630000
    79  H          0.01510000       0.52160000       0.10370000
    80  H          0.48490000       0.97840000       0.60370000
    81  C          0.29461200       0.54084000       0.56032000
    82  C          0.20538800       0.95916000       0.06032000
    83  C          0.70538800       0.54084000       0.93968000
    84  C          0.79461200       0.95916000       0.43968000
    85  C          0.70538800       0.45916000       0.43968000
    86  C          0.79461200       0.04084000       0.93968000
    87  C          0.29461200       0.45916000       0.06032000
    88  C          0.20538800       0.04084000       0.56032000
    89  C          0.26151600       0.61015000       0.58823000
    90  C          0.23848400       0.88985000       0.08823000
    91  C          0.73848400       0.61015000       0.91177000
    92  C          0.76151600       0.88985000       0.41177000
    93  C          0.73848400       0.38985000       0.41177000
    94  C          0.76151600       0.11015000       0.91177000
    95  C          0.26151600       0.38985000       0.08823000
    96  C          0.23848400       0.11015000       0.58823000
    97  H          0.13530000       0.61490000       0.61730000
    98  H          0.36470000       0.88510000       0.11730000
    99  H          0.86470000       0.61490000       0.88270000
   100  H          0.63530000       0.88510000       0.38270000
   101  H          0.86470000       0.38510000       0.38270000
   102  H          0.63530000       0.11490000       0.88270000
   103  H          0.13530000       0.38510000       0.11730000
   104  H          0.36470000       0.11490000       0.61730000
   105  C          0.41320000       0.67216000       0.57354000
   106  C          0.08680000       0.82784000       0.07354000
   107  C          0.58680000       0.67216000       0.92646000
   108  C          0.91320000       0.82784000       0.42646000
   109  C          0.58680000       0.32784000       0.42646000
   110  C          0.91320000       0.17216000       0.92646000
   111  C          0.41320000       0.32784000       0.07354000
   112  C          0.08680000       0.17216000       0.57354000
   113  H          0.38600000       0.71800000       0.59280000
   114  H          0.11400000       0.78200000       0.09280000
   115  H          0.61400000       0.71800000       0.90720000
   116  H          0.88600000       0.78200000       0.40720000
   117  H          0.61400000       0.28200000       0.40720000
   118  H          0.88600000       0.21800000       0.90720000
   119  H          0.38600000       0.28200000       0.09280000
   120  H          0.11400000       0.21800000       0.59280000
   121  C          0.59961900       0.66755000       0.53134000
   122  C          0.90038100       0.83245000       0.03134000
   123  C          0.40038100       0.66755000       0.96866000
   124  C          0.09961900       0.83245000       0.46866000
   125  C          0.40038100       0.33245000       0.46866000
   126  C          0.09961900       0.16755000       0.96866000
   127  C          0.59961900       0.33245000       0.03134000
   128  C          0.90038100       0.16755000       0.53134000
   129  H          0.70170000       0.70970000       0.52250000
   130  H          0.79830000       0.79030000       0.02250000
   131  H          0.29830000       0.70970000       0.97750000
   132  H          0.20170000       0.79030000       0.47750000
   133  H          0.29830000       0.29030000       0.47750000
   134  H          0.20170000       0.20970000       0.97750000
   135  H          0.70170000       0.29030000       0.02250000
   136  H          0.79830000       0.20970000       0.52250000
   137  C          0.63851300       0.59904000       0.50093000
   138  C          0.86148700       0.90096000       0.00093000
   139  C          0.36148700       0.59904000      -0.00093000
   140  C          0.13851300       0.90096000       0.49907000
   141  C          0.36148700       0.40096000       0.49907000
   142  C          0.13851300       0.09904000      -0.00093000
   143  C          0.63851300       0.40096000       0.00093000
   144  C          0.86148700       0.09904000       0.50093000
   145  C          0.48501100       0.53524000       0.51512000
   146  C          0.01498900       0.96476000       0.01512000
   147  C          0.51498900       0.53524000       0.98488000
   148  C         -0.01498900       0.96476000       0.48488000
   149  C          0.51498900       0.46476000       0.48488000
   150  C         -0.01498900       0.03524000       0.98488000
   151  C          0.48501100       0.46476000       0.01512000
   152  C          0.01498900       0.03524000       0.51512000
