data_QEVZOJ
_symmetry_space_group_name_H-M    'P1'
_symmetry_Int_Tables_number       1
loop_
_symmetry_equiv_pos_site_id
_symmetry_equiv_pos_as_xyz
1 x,y,z
_cell_length_a                   7.25935
_cell_length_b                   9.75836
_cell_length_c                   12.28965
_cell_angle_alpha                90.8874
_cell_angle_beta                 95.1544
_cell_angle_gamma                108.9445
loop_
_atom_site_label
_atom_site_type_symbol
_atom_site_fract_x
_atom_site_fract_y
_atom_site_fract_z
     1  O          0.20672000       0.00313160       0.77639120
     2  O          0.79328000      -0.00313160       0.22360880
     3  O          0.25676190       0.82961140       0.41931100
     4  O          0.74323810       0.17038860       0.58068900
     5  O          0.27142000       0.76196160       0.25126100
     6  O          0.72858000       0.23803840       0.74873900
     7  O          0.51242000       0.63218160       0.20291900
     8  O          0.48758000       0.36781840       0.79708100
     9  H          0.42750000       0.67050000       0.19290000
    10  H          0.57250000       0.32950000       0.80710000
    11  O          0.79142000       0.50889180       0.17300100
    12  O          0.20858000       0.49110820       0.82699900
    13  O          0.94942000       0.46709160       0.32540100
    14  O          0.05058000       0.53290840       0.67459900
    15  H         -0.00420000       0.42600000       0.28200000
    16  H          0.00420000       0.57400000       0.71800000
    17  C          0.04223000       0.04373000       0.73672000
    18  C          0.95777000       0.95627000       0.26328000
    19  H          0.07840000       0.11150000       0.68020000
    20  H          0.92160000       0.88850000       0.31980000
    21  H         -0.00040000       0.08780000       0.79550000
    22  H          0.00040000       0.91220000       0.20450000
    23  H          0.93770000       0.95910000       0.70740000
    24  H          0.06230000       0.04090000       0.29260000
    25  C          0.28123000       0.93298190       0.70521150
    26  C          0.71877000       0.06701810       0.29478850
    27  C          0.42683000       0.88012000       0.75077150
    28  C          0.57317000       0.11988000       0.24922850
    29  H          0.46380000       0.89260000       0.82570000
    30  H          0.53620000       0.10740000       0.17430000
    31  C          0.51563000       0.80976190       0.68592140
    32  C          0.48437000       0.19023810       0.31407860
    33  H          0.61090000       0.77410000       0.71770000
    34  H          0.38910000       0.22590000       0.28230000
    35  C          0.46492000       0.79077170       0.57231130
    36  C          0.53508000       0.20922830       0.42768870
    37  C          0.55582000       0.72086160       0.49840130
    38  C          0.44418000       0.27913840       0.50159870
    39  C          0.70583000       0.66707190       0.53360130
    40  C          0.29417000       0.33292810       0.46639870
    41  H          0.75180000       0.67490000       0.60730000
    42  H          0.24820000       0.32510000       0.39270000
    43  C          0.78573000       0.60235190       0.45893130
    44  C          0.21427000       0.39764810       0.54106870
    45  H          0.88510000       0.56660000       0.48410000
    46  H          0.11490000       0.43340000       0.51590000
    47  C          0.72443000       0.58778170       0.34676130
    48  C          0.27557000       0.41221830       0.65323870
    49  C          0.57413000       0.64203180       0.30966130
    50  C          0.42587000       0.35796820       0.69033870
    51  C          0.49012000       0.70857170       0.38581130
    52  C          0.50988000       0.29142830       0.61418870
    53  C          0.33683000       0.76565190       0.34658140
    54  C          0.66317000       0.23434810       0.65341860
    55  C          0.31883000       0.84355180       0.53031140
    56  C          0.68117000       0.15644820       0.46968860
    57  C          0.22513000       0.91350190       0.59373150
    58  C          0.77487000       0.08649810       0.40626850
    59  H          0.12700000       0.94660000       0.56230000
    60  H          0.87300000       0.05340000       0.43770000
    61  C          0.82153000       0.51817190       0.27179140
    62  C          0.17847000       0.48182810       0.72820860
    63  S          0.13594800       0.37913500       0.08600300
    64  S          0.86405200       0.62086500       0.91399700
    65  O          0.11942000       0.33469160       0.20315100
    66  O          0.88058000       0.66530840       0.79684900
    67  C          0.92154000       0.26233000       0.01057170
    68  C          0.07846000       0.73767000      -0.01057170
    69  H          0.90660000       0.16350000       0.02640000
    70  H          0.09340000       0.83650000       0.97360000
    71  H          0.93180000       0.27490000       0.93380000
    72  H          0.06820000       0.72510000       0.06620000
    73  H          0.80970000       0.28520000       0.03060000
    74  H          0.19030000       0.71480000       0.96940000
    75  C          0.31074000       0.30643000       0.03947170
    76  C          0.68926000       0.69357000       0.96052830
    77  H          0.43650000       0.35480000       0.07850000
    78  H          0.56350000       0.64520000       0.92150000
    79  H          0.31810000       0.32050000       0.96260000
    80  H          0.68190000       0.67950000       0.03740000
    81  H          0.27220000       0.20460000       0.05210000
    82  H          0.72780000       0.79540000       0.94790000
