data_QIGVEH
_symmetry_space_group_name_H-M    'P1'
_symmetry_Int_Tables_number       1
loop_
_symmetry_equiv_pos_site_id
_symmetry_equiv_pos_as_xyz
1 x,y,z
_cell_length_a                   8.1812
_cell_length_b                   12.8912
_cell_length_c                   7.7582
_cell_angle_alpha                104.732
_cell_angle_beta                 116.102
_cell_angle_gamma                73.342
loop_
_atom_site_label
_atom_site_type_symbol
_atom_site_fract_x
_atom_site_fract_y
_atom_site_fract_z
     1  O          0.27812000       0.54740140       0.34053000
     2  O          0.72188000       0.45259860       0.65947000
     3  O          0.79912000       0.64795140       0.38423000
     4  O          0.20088000       0.35204860       0.61577000
     5  O          0.39192000       0.88430130       0.61292000
     6  O          0.60808000       0.11569870       0.38708000
     7  N          0.33452000       0.71460130       0.47892000
     8  N          0.66548000       0.28539870       0.52108000
     9  N          0.59242000       0.76984130       0.49062000
    10  N          0.40758000       0.23015870       0.50938000
    11  C          0.36893000       0.61484170       0.37533000
    12  C          0.63107000       0.38515830       0.62467000
    13  C          0.51783000       0.59508190       0.30294000
    14  C          0.48217000       0.40491810       0.69706000
    15  C          0.65043000       0.67064160       0.39633000
    16  C          0.34957000       0.32935840       0.60367000
    17  C          0.43602000       0.79576160       0.53133000
    18  C          0.56398000       0.20423840       0.46867000
    19  C          0.17774000       0.74183000       0.53845000
    20  C          0.82226000       0.25817000       0.46155000
    21  C          0.70444000       0.85432000       0.55774000
    22  C          0.29556000       0.14568000       0.44226000
    23  H          0.57830000       0.52120000       0.30330000
    24  H          0.42170000       0.47880000       0.69670000
    25  H          0.45440000       0.60420000       0.16350000
    26  H          0.54560000       0.39580000       0.83650000
    27  H          0.08360000       0.79840000       0.48660000
    28  H          0.91640000       0.20160000       0.51340000
    29  H          0.21950000       0.74030000       0.67660000
    30  H          0.78050000       0.25970000       0.32340000
    31  H          0.13380000       0.67850000       0.49390000
    32  H          0.86620000       0.32150000       0.50610000
    33  H          0.66950000       0.89930000       0.47150000
    34  H          0.33050000       0.10070000       0.52850000
    35  H          0.71860000       0.88730000       0.68560000
    36  H          0.28140000       0.11270000       0.31440000
    37  H          0.82760000       0.82330000       0.61250000
    38  H          0.17240000       0.17670000       0.38750000
    39  O          0.50482000       0.19205160       0.93907000
    40  O          0.49518000       0.80794840       0.06093000
    41  O          0.40092000       0.34162150       0.09053000
    42  O          0.59908000       0.65837850       0.90947000
    43  N          0.08133000       0.37355150       0.11423000
    44  N          0.91867000       0.62644850       0.88577000
    45  N          0.92957000       0.42941190       0.16494000
    46  N          0.07043000       0.57058810       0.83506000
    47  N          0.38652000       0.24842160      -0.00042000
    48  N          0.61348000       0.75157840       0.00042000
    49  C          0.08362000       0.27006150       0.02053000
    50  C          0.91638000       0.72993850       0.97947000
    51  C          0.22913000       0.20606160       0.96447000
    52  C          0.77087000       0.79393840       0.03553000
    53  C          0.22564000       0.09852180       0.87127000
    54  C          0.77436000       0.90147820       0.12873000
    55  C          0.07914000       0.05332000       0.82816000
    56  C          0.92086000       0.94668000       0.17184000
    57  C          0.93356000       0.11419180       0.87897000
    58  C          0.06644000       0.88580820       0.12103000
    59  C          0.93457000       0.21847180       0.97247000
    60  C          0.06543000       0.78152820       0.02753000
    61  H          0.17540000       0.39920000       0.15340000
    62  H          0.82460000       0.60080000       0.84660000
    63  H          0.88650000       0.48830000       0.12450000
    64  H          0.11350000       0.51170000       0.87550000
    65  H          0.96850000       0.44130000       0.29350000
    66  H          0.03150000       0.55870000       0.70650000
    67  H          0.32530000       0.05820000       0.83570000
    68  H          0.67470000       0.94180000       0.16430000
    69  H          0.07840000       0.98380000       0.76860000
    70  H          0.92160000       0.01620000       0.23140000
    71  H          0.82760000       0.08920000       0.85160000
    72  H          0.17240000       0.91080000       0.14840000
    73  H          0.83670000       0.26151900       0.00430000
    74  H          0.16330000       0.73848100      -0.00430000
