data_QIGVAH
_symmetry_space_group_name_H-M    'P1'
_symmetry_Int_Tables_number       1
loop_
_symmetry_equiv_pos_site_id
_symmetry_equiv_pos_as_xyz
1 x,y,z
_cell_length_a                   7.68995
_cell_length_b                   11.82327
_cell_length_c                   11.94627
_cell_angle_alpha                114.15401
_cell_angle_beta                 102.61701
_cell_angle_gamma                96.55401
loop_
_atom_site_label
_atom_site_type_symbol
_atom_site_fract_x
_atom_site_fract_y
_atom_site_fract_z
     1  I          0.32687200       0.48810200       0.83385200
     2  I          0.67312800       0.51189800       0.16614800
     3  F          0.97207000       0.28488150       0.78900170
     4  F          0.02793000       0.71511850       0.21099830
     5  F          0.27393000       0.70663150       0.08547170
     6  F          0.72607000       0.29336850       0.91452830
     7  C         -0.01083000       0.39332000       0.89432000
     8  C          0.01083000       0.60668000       0.10568000
     9  C          0.13193000       0.49543190       0.93300180
    10  C          0.86807000       0.50456810       0.06699820
    11  C          0.13943000       0.60292000       0.04112000
    12  C          0.86057000       0.39708000       0.95888000
    13  F          0.87442000       0.25508120       0.19285130
    14  F          0.12558000       0.74491880       0.80714870
    15  F          0.70403000       0.83026820       0.88552850
    16  F          0.29597000       0.16973180       0.11447150
    17  O          0.68213190       0.14917130       0.45242130
    18  O          0.31786810       0.85082870       0.54757870
    19  H          0.72440000       0.09330000       0.45730000
    20  H          0.27560000       0.90670000       0.54270000
    21  N          0.64902000       0.39046130       0.50858140
    22  N          0.35098000       0.60953870       0.49141860
    23  N          0.77703000       0.50000150       0.58322000
    24  N          0.22297000       0.49999850       0.41678000
    25  N          0.58343000       0.47225170       0.68883180
    26  N          0.41657000       0.52774830       0.31116820
    27  N          0.07797190       0.17963130       0.45612130
    28  N          0.92202810       0.82036870       0.54387870
    29  N          0.14392000       0.12125170       0.35501160
    30  N          0.85608000       0.87874830       0.64498840
    31  N          0.23012000       0.05391160       0.50522190
    32  N          0.76988000       0.94608840       0.49477810
    33  C          0.73632000       0.10304160       0.24660170
    34  C          0.26368000       0.89695840       0.75339830
    35  C          0.79753000       0.13256190       0.15877180
    36  C          0.20247000       0.86743810       0.84122820
    37  C          0.78713000       0.04352000       0.03742000
    38  C          0.21287000       0.95648000       0.96258000
    39  H          0.82907500       0.06671500       0.98072800
    40  H          0.17092500       0.93328500       0.01927200
    41  C          0.71243000       0.91948000       0.00402000
    42  C          0.28757000       0.08052000      -0.00402000
    43  C          0.64753000       0.88258000       0.08382000
    44  C          0.35247000       0.11742000       0.91618000
    45  H          0.59678900       0.79739900       0.05783200
    46  H          0.40321100       0.20260100       0.94216800
    47  C          0.65883000       0.97546820       0.20542000
    48  C          0.34117000       0.02453180       0.79458000
    49  H          0.61329400       0.95147800       0.26037500
    50  H          0.38670600       0.04852200       0.73962500
    51  C          0.75952000       0.20242150       0.38383160
    52  C          0.24048000       0.79757850       0.61616840
    53  C          0.65053000       0.30313180       0.38057170
    54  C          0.34947000       0.69686820       0.61942830
    55  H          0.70439000       0.35103800       0.34240700
    56  H          0.29561000       0.64896200       0.65759300
    57  H          0.52557300       0.26072900       0.32724500
    58  H          0.47442700       0.73927100       0.67275500
    59  C          0.73003000       0.54392000       0.68952000
    60  C          0.26997000       0.45608000       0.31048000
    61  H          0.79480200       0.61991500       0.76052100
    62  H          0.20519800       0.38008500       0.23947900
    63  C          0.53783000       0.37672000       0.57352000
    64  C          0.46217000       0.62328000       0.42648000
    65  H          0.43886500       0.30788200       0.54178800
    66  H          0.56113500       0.69211800       0.45821200
    67  C          0.96292000       0.26919160       0.45669170
    68  C          0.03708000       0.73080840       0.54330830
    69  H          0.00677400       0.31977800       0.41760500
    70  H         -0.00677400       0.68022200       0.58239500
    71  H          0.97303800       0.32656900       0.54474800
    72  H          0.02696200       0.67343100       0.45525200
    73  C          0.23263000       0.04722000       0.38972000
    74  C          0.76737000       0.95278000       0.61028000
    75  H          0.29323800      -0.00620200       0.33860300
    76  H          0.70676200       0.00620200       0.66139700
    77  C          0.13112000       0.13859170       0.54323190
    78  C          0.86888000       0.86140830       0.45676810
    79  H          0.10252700       0.16574200       0.62046500
    80  H          0.89747300       0.83425800       0.37953500
