data_QIGXUD
_symmetry_space_group_name_H-M    'P1'
_symmetry_Int_Tables_number       1
loop_
_symmetry_equiv_pos_site_id
_symmetry_equiv_pos_as_xyz
1 x,y,z
_cell_length_a                   12.99114
_cell_length_b                   5.8425
_cell_length_c                   16.42718
_cell_angle_alpha                90.0
_cell_angle_beta                 106.944
_cell_angle_gamma                90.0
loop_
_atom_site_label
_atom_site_type_symbol
_atom_site_fract_x
_atom_site_fract_y
_atom_site_fract_z
     1  I          0.39469400       0.61305100       0.01624300
     2  I          0.60530600       0.11305100       0.98375700
     3  I          0.20136400       0.25845800       0.29831300
     4  I          0.79863600       0.75845800       0.70168700
     5  F          0.40814000       0.54738000       0.21083000
     6  F          0.59186000       0.04738000       0.78917000
     7  F          0.33593000       0.79479000       0.31903000
     8  F          0.66407000       0.29479000       0.68097000
     9  F          0.18504000       0.32868000       0.09913000
    10  F          0.81496000       0.82868000       0.90087000
    11  F          0.25544000       0.07669000       0.99107000
    12  F          0.74456000       0.57669000       0.00893000
    13  C          0.33496000       0.80921400       0.09875000
    14  C          0.66504000       0.30921400       0.90125000
    15  C          0.35356000       0.74231700       0.18275000
    16  C          0.64644000       0.24231700       0.81725000
    17  C          0.31547000       0.86811400       0.23765000
    18  C          0.68453000       0.36811400       0.76235000
    19  C          0.25876000       0.06841400       0.21165000
    20  C          0.74124000       0.56841400       0.78835000
    21  C          0.24006000       0.13531700       0.12825000
    22  C          0.75994000       0.63531700       0.87175000
    23  C          0.27836000       0.00581400       0.07275000
    24  C          0.72164000       0.50581400       0.92725000
    25  F          0.57584000       0.28581100       0.29873000
    26  F          0.42416000       0.78581100       0.70127000
    27  F          0.81893000       0.27009000       0.18512000
    28  F          0.18107000       0.77009000       0.81488000
    29  F          0.03014000       0.92382000       0.03373000
    30  F          0.96986000       0.42382000       0.96627000
    31  O          0.86504000       0.67802000       0.34413000
    32  O          0.13496000       0.17802000       0.65587000
    33  H          0.81771900       0.64340400       0.36578600
    34  H          0.18228100       0.14340400       0.63421400
    35  N          0.88005000       0.08971200       0.44853000
    36  N          0.11995000       0.58971200       0.55147000
    37  N          0.83415000       0.27921300       0.47104000
    38  N          0.16585000       0.77921300       0.52896000
    39  N          0.85996000       0.00621200       0.57244000
    40  N          0.14004000       0.50621200       0.42756000
    41  N          0.67755000       0.74768500       0.39034000
    42  N          0.32245000       0.24768500       0.60966000
    43  N          0.55656000       0.89908700       0.46134000
    44  N          0.44344000       0.39908700       0.53866000
    45  C          0.90506000       0.07971400       0.36764000
    46  C          0.09494000       0.57971400       0.63236000
    47  H          0.98136100       0.05064500       0.37891100
    48  H          0.01863900       0.55064500       0.62108900
    49  H          0.88998700       0.22820100       0.34023200
    50  H          0.11001300       0.72820100       0.65976800
    51  C          0.84206000       0.89538600       0.30495000
    52  C          0.15794000       0.39538600       0.69505000
    53  C          0.71946000       0.93908600       0.27144000
    54  C          0.28054000       0.43908600       0.72856000
    55  H          0.70866900       0.09226900       0.24598700
    56  H          0.29133100       0.59226900       0.75401300
    57  C          0.66346000       0.76638100       0.20234000
    58  C          0.33654000       0.26638100       0.79766000
    59  H          0.67004200       0.61533200       0.22628400
    60  H          0.32995800       0.11533200       0.77371600
    61  H          0.69643200       0.77043600       0.15708700
    62  H          0.30356800       0.27043600       0.84291300
    63  H          0.58859500       0.80528800       0.18017900
    64  H          0.41140500       0.30528800       0.81982100
    65  C          0.66306000       0.93108600       0.33995000
    66  C          0.33694000       0.43108600       0.66005000
    67  C          0.62376000       0.74298100       0.44825000
    68  C          0.37624000       0.24298100       0.55175000
    69  H          0.63470700       0.61512300       0.48338400
    70  H          0.36529300       0.11512300       0.51661600
    71  C          0.54186000       0.07901600       0.41115000
    72  C          0.45814000       0.57901600       0.58885000
    73  H          0.49511400       0.19419800       0.41701700
    74  H          0.50488600       0.69419800       0.58298300
    75  C          0.59446000       0.09931600       0.34985000
    76  C          0.40554000       0.59931600       0.65015000
    77  C          0.89527000       0.93218500       0.50925000
    78  C          0.10473000       0.43218500       0.49075000
    79  H          0.92628000       0.78952700       0.50755800
    80  H          0.07372000       0.28952700       0.49244200
    81  C          0.82436000       0.21901500       0.54525000
    82  C          0.17564000       0.71901500       0.45475000
    83  H          0.79469900       0.31611900       0.57728700
    84  H          0.20530100       0.81611900       0.42271300
    85  C          0.89226000       0.90208700       0.23024000
    86  C          0.10774000       0.40208700       0.76976000
    87  C          0.95706000       0.72588600       0.21774000
    88  C          0.04294000       0.22588600       0.78226000
    89  H          0.96921000       0.60049800       0.25413300
    90  H          0.03079000       0.10049800       0.74586700
    91  C          0.00526000       0.73198300       0.15094000
    92  C         -0.00526000       0.23198300       0.84906000
    93  H          0.04941000       0.61354100       0.14336600
    94  H          0.95059000       0.11354100       0.85663400
    95  C          0.98526000       0.91488600       0.09824000
    96  C          0.01474000       0.41488600       0.90176000
    97  C          0.92326000       0.09931700       0.10824000
    98  C          0.07674000       0.59931700       0.89176000
    99  H          0.91208300       0.22487300       0.07190900
   100  H          0.08791700       0.72487300       0.92809100
   101  C          0.87856000       0.08771500       0.17484000
   102  C          0.12144000       0.58771500       0.82516000
