data_QIHBOY
_symmetry_space_group_name_H-M    'P1'
_symmetry_Int_Tables_number       1
loop_
_symmetry_equiv_pos_site_id
_symmetry_equiv_pos_as_xyz
1 x,y,z
_cell_length_a                   6.76974
_cell_length_b                   7.42385
_cell_length_c                   8.91336
_cell_angle_alpha                69.0444
_cell_angle_beta                 83.9934
_cell_angle_gamma                80.3924
loop_
_atom_site_label
_atom_site_type_symbol
_atom_site_fract_x
_atom_site_fract_y
_atom_site_fract_z
     1  I          0.59069000       0.08201000       0.69989000
     2  I          0.40931000       0.91799000       0.30011000
     3  I          0.25519000       0.33291000       0.55039000
     4  I          0.74481000       0.66709000       0.44961000
     5  N          0.88512000       0.86862000       0.82424000
     6  N          0.11488000       0.13138000       0.17576000
     7  C          0.03841000       0.81869000       0.73362000
     8  C          0.96159000       0.18131000       0.26638000
     9  C          0.21341000       0.71109000       0.79473000
    10  C          0.78659000       0.28891000       0.20527000
    11  C          0.23689000       0.64782000       0.96213000
    12  C          0.76311000       0.35218000       0.03787000
    13  C          0.07631000       0.70011000       0.05268000
    14  C          0.92369000       0.29989000       0.94732000
    15  C          0.90409000       0.80911000      -0.01578000
    16  C          0.09591000       0.19089000       0.01578000
    17  C          0.41881000       0.53059000       0.03618000
    18  C          0.58119000       0.46941000       0.96382000
    19  H          0.02390000       0.86050000       0.61960000
    20  H          0.97610000       0.13950000       0.38040000
    21  H          0.32020000       0.67710000       0.72560000
    22  H          0.67980000       0.32290000       0.27440000
    23  H          0.08530000       0.65770000       0.16730000
    24  H          0.91470000       0.34230000       0.83270000
    25  H          0.79490000       0.84430000       0.05100000
    26  H          0.20510000       0.15570000       0.94900000
    27  H          0.42110000       0.49290000       0.15100000
    28  H          0.57890000       0.50710000       0.84900000
