data_QIHBEO
_symmetry_space_group_name_H-M    'P1'
_symmetry_Int_Tables_number       1
loop_
_symmetry_equiv_pos_site_id
_symmetry_equiv_pos_as_xyz
1 x,y,z
_cell_length_a                   8.3501
_cell_length_b                   5.71797
_cell_length_c                   17.7462
_cell_angle_alpha                90.0
_cell_angle_beta                 96.2724
_cell_angle_gamma                90.0
loop_
_atom_site_label
_atom_site_type_symbol
_atom_site_fract_x
_atom_site_fract_y
_atom_site_fract_z
     1  I          0.80531000       0.72579000       0.33051000
     2  I          0.19469000       0.22579000       0.16949000
     3  I          0.19469000       0.27421000       0.66949000
     4  I          0.80531000       0.77421000       0.83051000
     5  F          0.83103000       0.90336000       0.50251000
     6  F          0.16897000       0.40336000      -0.00251000
     7  F          0.16897000       0.09664000       0.49749000
     8  F          0.83103000       0.59664000       0.00251000
     9  F          0.02164000       0.26676000       0.36902000
    10  F          0.97836000       0.76676000       0.13098000
    11  F          0.97836000       0.73324000       0.63098000
    12  F          0.02164000       0.23324000       0.86902000
    13  C          0.92204000       0.58864000       0.43132000
    14  C          0.07796000       0.08864000       0.06868000
    15  C          0.07796000       0.41136000       0.56868000
    16  C          0.92204000       0.91136000       0.93132000
    17  C          0.91425000       0.70144000       0.49992000
    18  C          0.08575000       0.20144000       0.00008000
    19  C          0.08575000       0.29856000       0.50008000
    20  C          0.91425000       0.79856000      -0.00008000
    21  C          0.00824000       0.38473000       0.43332000
    22  C         -0.00824000       0.88473000       0.06668000
    23  C         -0.00824000       0.61527000       0.56668000
    24  C          0.00824000       0.11527000       0.93332000
    25  N          0.63224000       0.90474000       0.19542000
    26  N          0.36776000       0.40474000       0.30458000
    27  N          0.36776000       0.09526000       0.80458000
    28  N          0.63224000       0.59526000       0.69542000
    29  C          0.53337000       0.75484000       0.15483000
    30  C          0.46663000       0.25484000       0.34517000
    31  C          0.46663000       0.24516000       0.84517000
    32  C          0.53337000       0.74516000       0.65483000
    33  C          0.47886000       0.78504000       0.07952000
    34  C          0.52114000       0.28504000       0.42048000
    35  C          0.52114000       0.21496000       0.92048000
    36  C          0.47886000       0.71496000       0.57952000
    37  C          0.52683000      -0.01836000       0.04062000
    38  C          0.47317000       0.48164000       0.45938000
    39  C          0.47317000       0.01836000       0.95938000
    40  C          0.52683000       0.51836000       0.54062000
    41  C          0.62695000       0.13727000       0.08322000
    42  C          0.37305000       0.63727000       0.41678000
    43  C          0.37305000       0.86273000       0.91678000
    44  C          0.62695000       0.36273000       0.58322000
    45  C          0.67465000       0.09349000       0.15862000
    46  C          0.32535000       0.59349000       0.34138000
    47  C          0.32535000       0.90651000       0.84138000
    48  C          0.67465000       0.40651000       0.65862000
    49  H          0.49780000       0.61910000       0.18020000
    50  H          0.50220000       0.11910000       0.31980000
    51  H          0.50220000       0.38090000       0.81980000
    52  H          0.49780000       0.88090000       0.68020000
    53  H          0.40810000       0.67180000       0.05340000
    54  H          0.59190000       0.17180000       0.44660000
    55  H          0.59190000       0.32820000       0.94660000
    56  H          0.40810000       0.82820000       0.55340000
    57  H          0.66220000       0.27720000       0.06010000
    58  H          0.33780000       0.77720000       0.43990000
    59  H          0.33780000       0.72280000       0.93990000
    60  H          0.66220000       0.22280000       0.56010000
    61  H          0.74350000       0.20560000       0.18620000
    62  H          0.25650000       0.70560000       0.31380000
    63  H          0.25650000       0.79440000       0.81380000
    64  H          0.74350000       0.29440000       0.68620000
