data_QIHBIS
_symmetry_space_group_name_H-M    'P1'
_symmetry_Int_Tables_number       1
loop_
_symmetry_equiv_pos_site_id
_symmetry_equiv_pos_as_xyz
1 x,y,z
_cell_length_a                   4.40226
_cell_length_b                   8.1041
_cell_length_c                   11.7202
_cell_angle_alpha                97.5854
_cell_angle_beta                 98.5555
_cell_angle_gamma                100.6734
loop_
_atom_site_label
_atom_site_type_symbol
_atom_site_fract_x
_atom_site_fract_y
_atom_site_fract_z
     1  I          0.83469000       0.47621000       0.19081000
     2  I          0.16531000       0.52379000       0.80919000
     3  I          0.65799000       0.81751000       0.05591000
     4  I          0.34201000       0.18249000       0.94409000
     5  C          0.58998700       0.55176000       0.04435000
     6  C          0.41001300       0.44824000       0.95565000
     7  N          0.13691500       0.30527000       0.36895000
     8  N          0.86308500       0.69473000       0.63105000
     9  C          0.20092200       0.16839000       0.30666000
    10  C          0.79907800       0.83161000       0.69334000
    11  C          0.33602000       0.04839000       0.35406000
    12  C          0.66398000       0.95161000       0.64594000
    13  C          0.42481400       0.06377000       0.47315000
    14  C          0.57518600       0.93623000       0.52685000
    15  C          0.36481900       0.20509000       0.53706000
    16  C          0.63518100       0.79491000       0.46294000
    17  C          0.22562000       0.32031000       0.48467000
    18  C          0.77438000       0.67969000       0.51533000
    19  H          0.14590000       0.15440000       0.22290000
    20  H          0.85410000       0.84560000       0.77710000
    21  H          0.36880000       0.95170000       0.30410000
    22  H          0.63120000       0.04830000       0.69590000
    23  H          0.42180000       0.22360000       0.62070000
    24  H          0.57820000       0.77640000       0.37930000
    25  H          0.19150000       0.41800000       0.53300000
    26  H          0.80850000       0.58200000       0.46700000
