data_QIHCEP
_symmetry_space_group_name_H-M    'P1'
_symmetry_Int_Tables_number       1
loop_
_symmetry_equiv_pos_site_id
_symmetry_equiv_pos_as_xyz
1 x,y,z
_cell_length_a                   8.9421
_cell_length_b                   8.2031
_cell_length_c                   13.0014
_cell_angle_alpha                90.0
_cell_angle_beta                 106.6224
_cell_angle_gamma                90.0
loop_
_atom_site_label
_atom_site_type_symbol
_atom_site_fract_x
_atom_site_fract_y
_atom_site_fract_z
     1  I          0.22661000       0.11011000       0.93719000
     2  I          0.77339000       0.61011000       0.56281000
     3  I          0.77339000       0.88989000       0.06281000
     4  I          0.22661000       0.38989000       0.43719000
     5  I          0.89019000       0.87979000       0.81589000
     6  I          0.10981000       0.37979000       0.68411000
     7  I          0.10981000       0.12021000       0.18411000
     8  I          0.89019000       0.62021000       0.31589000
     9  C          0.02041100      -0.00091000       0.95664000
    10  C          0.97958900       0.49909000       0.54336000
    11  C          0.97958900       0.00091000       0.04336000
    12  C          0.02041100       0.50091000       0.45664000
    13  N          0.49949000       0.26449000       0.91333000
    14  N          0.50051000       0.76449000       0.58667000
    15  N          0.50051000       0.73551000       0.08667000
    16  N          0.49949000       0.23551000       0.41333000
    17  C          0.58561100       0.31621200       0.00689000
    18  C          0.41438900       0.81621200       0.49311000
    19  C          0.41438900       0.68378800      -0.00689000
    20  C          0.58561100       0.18378800       0.50689000
    21  C          0.73001100       0.38541000       0.02618000
    22  C          0.26998900       0.88541000       0.47382000
    23  C          0.26998900       0.61459000       0.97382000
    24  C          0.73001100       0.11459000       0.52618000
    25  C          0.79671100       0.40019000       0.94333000
    26  C          0.20328900       0.90019000       0.55667000
    27  C          0.20328900       0.59981000       0.05667000
    28  C          0.79671100       0.09981000       0.44333000
    29  C          0.70841200       0.34791400       0.84362000
    30  C          0.29158800       0.84791400       0.65638000
    31  C          0.29158800       0.65208600       0.15638000
    32  C          0.70841200       0.15208600       0.34362000
    33  C          0.56201200       0.28111400       0.83262000
    34  C          0.43798800       0.78111400       0.66738000
    35  C          0.43798800       0.71888600       0.16738000
    36  C          0.56201200       0.21888600       0.33262000
    37  C          0.95301000       0.46951000       0.95553000
    38  C          0.04699000       0.96951000       0.54447000
    39  C          0.04699000       0.53049000       0.04447000
    40  C          0.95301000       0.03049000       0.45553000
    41  H          0.54070000       0.30650000       0.06540000
    42  H          0.45930000       0.80650000       0.43460000
    43  H          0.45930000       0.69350000       0.93460000
    44  H          0.54070000       0.19350000       0.56540000
    45  H          0.78480000       0.42180000       0.09720000
    46  H          0.21520000       0.92180000       0.40280000
    47  H          0.21520000       0.57820000       0.90280000
    48  H          0.78480000       0.07820000       0.59720000
    49  H          0.74650000       0.35740000       0.78190000
    50  H          0.25350000       0.85740000       0.71810000
    51  H          0.25350000       0.64260000       0.21810000
    52  H          0.74650000       0.14260000       0.28190000
    53  H          0.50110000       0.24570000       0.76270000
    54  H          0.49890000       0.74570000       0.73730000
    55  H          0.49890000       0.75430000       0.23730000
    56  H          0.50110000       0.25430000       0.26270000
    57  H         -0.01230000       0.47250000       0.89220000
    58  H          0.01230000       0.97250000       0.60780000
    59  H          0.01230000       0.52750000       0.10780000
    60  H         -0.01230000       0.02750000       0.39220000
