data_QINPEK
_symmetry_space_group_name_H-M    'P1'
_symmetry_Int_Tables_number       1
loop_
_symmetry_equiv_pos_site_id
_symmetry_equiv_pos_as_xyz
1 x,y,z
_cell_length_a                   7.90283
_cell_length_b                   9.71353
_cell_length_c                   13.26185
_cell_angle_alpha                81.4042
_cell_angle_beta                 73.2412
_cell_angle_gamma                84.1133
loop_
_atom_site_label
_atom_site_type_symbol
_atom_site_fract_x
_atom_site_fract_y
_atom_site_fract_z
     1  I          0.90883600       0.24582300       0.90412119
     2  I          0.09116400       0.75417700       0.09587881
     3  I          0.16792400       0.57040300       0.80765200
     4  I          0.83207600       0.42959700       0.19234800
     5  S          0.01033160       0.22373120       0.64987800
     6  S         -0.01033160       0.77626880       0.35012200
     7  S          0.21905170       0.47396120       0.57855800
     8  S          0.78094830       0.52603880       0.42144200
     9  S          0.11214160       0.16081120       0.40152800
    10  S          0.88785840       0.83918880       0.59847200
    11  S          0.31030160       0.41653120       0.33758800
    12  S          0.68969840       0.58346880       0.66241200
    13  S          0.20042000       0.07786120       0.18875900
    14  S          0.79958000       0.92213880       0.81124100
    15  S          0.43180160       0.38265120       0.10962800
    16  S          0.56819840       0.61734880       0.89037200
    17  C          0.02925000       0.32114000       0.74703000
    18  C          0.97075000       0.67886000       0.25297000
    19  C          0.12245000       0.43344000       0.71443000
    20  C          0.87755000       0.56656000       0.28557000
    21  C          0.14465000       0.32864000       0.54263000
    22  C          0.85535000       0.67136000       0.45737000
    23  C          0.18495000       0.30334000       0.44143000
    24  C          0.81505000       0.69666000       0.55857000
    25  C          0.22735000       0.19814000       0.26753000
    26  C          0.77265000       0.80186000       0.73247000
    27  C          0.31585000       0.31384000       0.23823000
    28  C          0.68415000       0.68616000       0.76177000
    29  C          0.32021000       0.15006000       0.05814000
    30  C          0.67979000       0.84994000       0.94186000
    31  H          0.43890000       0.10560000       0.04360000
    32  H          0.56110000       0.89440000       0.95640000
    33  H          0.26510000       0.12160000       0.00860000
    34  H          0.73490000       0.87840000      -0.00860000
    35  C          0.33728000       0.29586000       0.03324000
    36  C          0.66272000       0.70414000       0.96676000
    37  H          0.22000000       0.33970000       0.03710000
    38  H          0.78000000       0.66030000       0.96290000
    39  H          0.40720000       0.31320000       0.95980000
    40  H          0.59280000       0.68680000       0.04020000
    41  N          0.76096000       0.10654000       0.13363000
    42  N          0.23904000       0.89346000       0.86637000
    43  N          0.48766000       0.72725000       0.23503000
    44  N          0.51234000       0.27275000       0.76497000
    45  C          0.68206000       0.03525000       0.20343000
    46  C          0.31794000       0.96475000       0.79657000
    47  C          0.58296000       0.94336000       0.29093000
    48  C          0.41704000       0.05664000       0.70907000
    49  C          0.52936000       0.82215000       0.26163000
    50  C          0.47064000       0.17785000       0.73837000
    51  C          0.54135000       0.97136000       0.39413000
    52  C          0.45865000       0.02864000       0.60587000
    53  C          0.59926000       0.09365000       0.41973000
    54  C          0.40074000       0.90635000       0.58027000
    55  H          0.66530000       0.15480000       0.36530000
    56  H          0.33470000       0.84520000       0.63470000
    57  C          0.56076000       0.12165000       0.51983000
    58  C          0.43924000       0.87835000       0.48017000
    59  H          0.59990000       0.20170000       0.53400000
    60  H          0.40010000       0.79830000       0.46600000
