data_QIPKOP
_symmetry_space_group_name_H-M    'P1'
_symmetry_Int_Tables_number       1
loop_
_symmetry_equiv_pos_site_id
_symmetry_equiv_pos_as_xyz
1 x,y,z
_cell_length_a                   7.06122
_cell_length_b                   15.40364
_cell_length_c                   16.45193
_cell_angle_alpha                107.9272
_cell_angle_beta                 100.6051
_cell_angle_gamma                100.5691
loop_
_atom_site_label
_atom_site_type_symbol
_atom_site_fract_x
_atom_site_fract_y
_atom_site_fract_z
     1  S          0.34262000       0.78951000       0.14761000
     2  S          0.65738000       0.21049000       0.85239000
     3  S          0.08892000       0.73631000       0.17741000
     4  S          0.91108000       0.26369000       0.82259000
     5  O          0.48106000       0.72373000       0.34122000
     6  O          0.51894000       0.27627000       0.65878000
     7  O          0.53166000       0.87693000       0.35902000
     8  O          0.46834000       0.12307000       0.64098000
     9  O          0.72604000       0.58813000       0.14363000
    10  O          0.27396000       0.41187000       0.85637000
    11  O          0.82844000       0.46333000       0.07463000
    12  O          0.17156000       0.53667000       0.92537000
    13  C          0.51727000       0.79534000       0.31374000
    14  C          0.48273000       0.20466000       0.68626000
    15  C          0.53958000       0.76654000       0.22034000
    16  C          0.46042000       0.23346000       0.77966000
    17  C          0.06178000       0.60974000       0.12964000
    18  C          0.93822000       0.39026000       0.87036000
    19  C          0.85412000       0.55384000       0.11674000
    20  C          0.14588000       0.44616000       0.88326000
    21  H          0.44976000       0.74023000       0.40042000
    22  H          0.55024000       0.25977000       0.59958000
    23  H          0.67604000       0.43793000       0.09063000
    24  H          0.32396000       0.56207000       0.90937000
    25  H          0.53428000       0.69844000       0.19834000
    26  H          0.46572000       0.30156000       0.80166000
    27  H          0.67088000       0.80204000       0.21974000
    28  H          0.32912000       0.19796000       0.78026000
    29  H          0.09538000       0.59514000       0.07194000
    30  H          0.90462000       0.40486000       0.92806000
    31  H          0.15668000       0.59094000       0.16904000
    32  H          0.84332000       0.40906000       0.83096000
    33  Cl         0.84635000       0.57982000       0.49231000
    34  Cl         0.15365000       0.42018000       0.50769000
    35  Cl         0.01513000       0.65462000       0.36782000
    36  Cl        -0.01513000       0.34538000       0.63218000
    37  Cl         0.43383000       0.48632000       0.33632000
    38  Cl         0.56617000       0.51368000       0.66368000
    39  Cl         0.79793000       0.43391000       0.29031000
    40  Cl         0.20207000       0.56609000       0.70969000
    41  C          0.79371300       0.60886000       0.39546000
    42  C          0.20628700       0.39114000       0.60454000
    43  C          0.67941200       0.52875000       0.31746000
    44  C          0.32058800       0.47125000       0.68254000
    45  H          0.71651300       0.65776000       0.40576000
    46  H          0.28348700       0.34224000       0.59424000
    47  H          0.65701200       0.55095000       0.26616000
    48  H          0.34298800       0.44905000       0.73384000
    49  Cl         0.06963000       0.91779000       0.38231000
    50  Cl         0.93037000       0.08221000       0.61769000
    51  Cl         0.02982000       0.11111000       0.44511000
    52  Cl         0.97018000       0.88889000       0.55489000
    53  C          0.96878700      -0.00085000       0.45575000
    54  C          0.03121300       0.00085000       0.54425000
    55  H          0.82038700       0.97515000       0.43615000
    56  H          0.17961300       0.02485000       0.56385000
    57  N          0.30194000       0.89477000       0.89447000
    58  N          0.69806000       0.10523000       0.10553000
    59  N          0.70094000       0.01783000       0.92257000
    60  N          0.29906000       0.98217000       0.07743000
    61  N          0.46313000       0.77997000       0.50597000
    62  N          0.53687000       0.22003000       0.49403000
    63  N          0.50504000       0.64097000       0.93307000
    64  N          0.49496000       0.35903000       0.06693000
    65  C          0.11853000       0.84197000       0.89097000
    66  C          0.88147000       0.15803000       0.10903000
    67  C          0.01793000       0.77836000       0.80107000
    68  C         -0.01793000       0.22164000       0.19893000
    69  C          0.14062000       0.79386000       0.75097000
    70  C          0.85938000       0.20614000       0.24903000
    71  C          0.32003000       0.86427000       0.80977000
    72  C          0.67997000       0.13573000       0.19023000
    73  C          0.49023000       0.89487000       0.78157000
    74  C          0.50977000       0.10513000       0.21843000
    75  C          0.66523000       0.96357000       0.83427000
    76  C          0.33477000       0.03643000       0.16573000
    77  C          0.84143000      -0.00713000       0.80797000
    78  C          0.15857000       0.00713000       0.19203000
    79  C         -0.02737000       0.06334000       0.87777000
    80  C          0.02737000       0.93666000       0.12223000
    81  C          0.88603000       0.08193000       0.95187000
    82  C          0.11397000       0.91807000       0.04813000
    83  C          0.03453000       0.84977000       0.96407000
    84  C          0.96547000       0.15023000       0.03593000
    85  C          0.48233000       0.85346000       0.68527000
    86  C          0.51767000       0.14654000       0.31473000
    87  C          0.47142000       0.75826000       0.64366000
    88  C          0.52858000       0.24174000       0.35634000
    89  C          0.46261000       0.72426000       0.55486000
    90  C          0.53739000       0.27574000       0.44514000
    91  C          0.47492000       0.87086000       0.54546000
    92  C          0.52508000       0.12914000       0.45454000
    93  C          0.48423000       0.91076000       0.63467000
    94  C          0.51577000       0.08924000       0.36533000
    95  C          0.84773000       0.77657000       0.94987000
    96  C          0.15227000       0.22343000       0.05013000
    97  C          0.66773000       0.80016000       0.95606000
    98  C          0.33227000       0.19984000       0.04394000
    99  C          0.50292000       0.73116000       0.94646000
   100  C          0.49708000       0.26884000       0.05354000
   101  C          0.67782000       0.61826000       0.92706000
   102  C          0.32218000       0.38174000       0.07294000
   103  C          0.84913000       0.68306000       0.93496000
   104  C          0.15087000       0.31694000       0.06504000
   105  H          0.61164000       0.01063000       0.95947000
   106  H          0.38836000      -0.01063000       0.04053000
   107  H          0.89083000       0.73456000       0.78167000
   108  H          0.10917000       0.26544000       0.21833000
   109  H          0.11532000       0.76436000       0.68877000
   110  H          0.88468000       0.23564000       0.31123000
   111  H          0.86253000       0.96707000       0.75107000
   112  H          0.13747000       0.03293000       0.24893000
   113  H          0.10127000       0.09544000       0.87777000
   114  H          0.89873000       0.90456000       0.12223000
   115  H          0.47022000       0.71716000       0.67646000
   116  H          0.52978000       0.28284000       0.32354000
   117  H          0.45581000       0.65936000       0.52726000
   118  H          0.54419000       0.34064000       0.47274000
   119  H          0.47712000       0.91036000       0.51106000
   120  H          0.52288000       0.08964000       0.48894000
   121  H          0.49173000       0.97606000       0.66047000
   122  H          0.50827000       0.02394000       0.33953000
   123  H          0.65943000       0.86346000       0.96676000
   124  H          0.34057000       0.13654000       0.03324000
   125  H          0.38092000       0.74816000       0.94946000
   126  H          0.61908000       0.25184000       0.05054000
   127  H          0.68222000       0.55466000       0.91706000
   128  H          0.31778000       0.44534000       0.08294000
   129  H          0.96813000       0.66376000       0.93016000
   130  H          0.03187000       0.33624000       0.06984000
