data_QIQMIP
_symmetry_space_group_name_H-M    'P1'
_symmetry_Int_Tables_number       1
loop_
_symmetry_equiv_pos_site_id
_symmetry_equiv_pos_as_xyz
1 x,y,z
_cell_length_a                   8.49268
_cell_length_b                   8.84918
_cell_length_c                   11.214511
_cell_angle_alpha                86.1083
_cell_angle_beta                 70.9922
_cell_angle_gamma                79.0272
loop_
_atom_site_label
_atom_site_type_symbol
_atom_site_fract_x
_atom_site_fract_y
_atom_site_fract_z
     1  O          0.81228900       0.92034800       0.69179700
     2  O          0.18771100       0.07965200       0.30820300
     3  O          0.47366900       0.59134900       0.67602800
     4  O          0.52633100       0.40865100       0.32397200
     5  N          0.64065100       0.76565900       0.66795800
     6  N          0.35934900       0.23434100       0.33204200
     7  N          0.17743120      -0.01031900       0.58265900
     8  N          0.82256880       0.01031900       0.41734100
     9  N          0.47195110       0.26060110       0.60190100
    10  N          0.52804890       0.73939890       0.39809900
    11  C          0.92839110       0.55236100       0.53505800
    12  C          0.07160890       0.44763900       0.46494200
    13  C          0.76603110       0.51267100       0.57029800
    14  C          0.23396890       0.48732900       0.42970200
    15  C          0.10731120       0.73377110       0.53505800
    16  C          0.89268880       0.26622890       0.46494200
    17  C          0.94806120       0.69515100       0.57151800
    18  C          0.05193880       0.30484900       0.42848200
    19  C          0.79818120       0.80361110       0.64860900
    20  C          0.20181880       0.19638890       0.35139100
    21  C          0.74859120       0.37047110       0.53730800
    22  C          0.25140880       0.62952890       0.46269200
    23  C          0.13627120       0.87890110       0.56620900
    24  C          0.86372880       0.12109890       0.43379100
    25  C          0.58884120       0.31804110       0.57645900
    26  C          0.41115880       0.68195890       0.42354100
    27  C          0.49034120       0.88143110       0.73058900
    28  C          0.50965880       0.11856890       0.26941100
    29  H          0.39490000       0.86750000       0.70250000
    30  H          0.60510000       0.13250000       0.29750000
    31  H          0.51540000      -0.01440000       0.70390000
    32  H          0.48460000       0.01440000       0.29610000
    33  C          0.61425120       0.62345110       0.64252900
    34  C          0.38574880       0.37654890       0.35747100
    35  C          0.43722130       0.87066120       0.87339100
    36  C          0.56277870       0.12933880       0.12660900
    37  H          0.53230000       0.88330000       0.90230000
    38  H          0.46770000       0.11670000       0.09770000
    39  H          0.40840000       0.76790000       0.90120000
    40  H          0.59160000       0.23210000       0.09880000
    41  C          0.28421150      -0.00482870       0.93188110
    42  C          0.71578850       0.00482870       0.06811890
    43  H          0.31280000       0.09670000       0.90380000
    44  H          0.68720000       0.90330000       0.09620000
    45  H          0.25260000      -0.01170000       0.02400000
    46  H          0.74740000       0.01170000       0.97600000
    47  H          0.18910000       0.98040000       0.90540000
    48  H          0.81090000       0.01960000       0.09460000
    49  C          0.97794130       0.56154110       0.85108900
    50  C          0.02205870       0.43845890       0.14891100
    51  C          0.09347140       0.43746120       0.78531900
    52  C          0.90652860       0.56253880       0.21468100
    53  H          0.21080000       0.44180000       0.75640000
    54  H          0.78920000       0.55820000       0.24360000
    55  C          0.03836140       0.70101120       0.87703100
    56  C          0.96163860       0.29898880       0.12296900
    57  H          0.15920000       0.69340000       0.83040000
    58  H          0.84080000       0.30660000       0.16960000
    59  H          0.02030000       0.70680000       0.96760000
    60  H          0.97970000       0.29320000       0.03240000
    61  H          0.97490000       0.79380000       0.85000000
    62  H          0.02510000       0.20620000       0.15000000
    63  C          0.80622130       0.55211130       0.89267100
    64  C          0.19377870       0.44788870       0.10732900
    65  H          0.72560000       0.63540000       0.93800000
    66  H          0.27440000       0.36460000       0.06200000
    67  C          0.03935170       0.30748130       0.76144100
    68  C          0.96064830       0.69251870       0.23855900
    69  H          0.11980000       0.22380000       0.71660000
    70  H          0.88020000       0.77620000       0.28340000
    71  C          0.75193160       0.42249150       0.86852110
    72  C          0.24806840       0.57750850       0.13147890
    73  H          0.63470000       0.41780000       0.89700000
    74  H          0.36530000       0.58220000       0.10300000
    75  C          0.86899180       0.29936140       0.80268110
    76  C          0.13100820       0.70063860       0.19731890
    77  H          0.83210000       0.21050000       0.78620000
    78  H          0.16790000       0.78950000       0.21380000
