data_QISSUK
_symmetry_space_group_name_H-M    'P1'
_symmetry_Int_Tables_number       1
loop_
_symmetry_equiv_pos_site_id
_symmetry_equiv_pos_as_xyz
1 x,y,z
_cell_length_a                   8.21722
_cell_length_b                   11.51083
_cell_length_c                   16.68025
_cell_angle_alpha                90.0
_cell_angle_beta                 95.0563
_cell_angle_gamma                90.0
loop_
_atom_site_label
_atom_site_type_symbol
_atom_site_fract_x
_atom_site_fract_y
_atom_site_fract_z
     1  O          0.55688120       0.81311900       0.52677700
     2  O          0.94311880       0.31311900       0.97322300
     3  O          0.44311880       0.18688100       0.47322300
     4  O          0.05688120       0.68688100       0.02677700
     5  H          0.46900700       0.82878600       0.54393900
     6  H          0.03099300       0.32878600       0.95606100
     7  H          0.53099300       0.17121400       0.45606100
     8  H          0.96900700       0.67121400       0.04393900
     9  O          0.41431120       0.66343100       0.47421700
    10  O          0.08568880       0.16343100       0.02578300
    11  O          0.58568880       0.33656900       0.52578300
    12  O          0.91431120       0.83656900       0.97421700
    13  N          0.13645130       0.55040100       0.37914700
    14  N          0.36354870       0.05040100       0.12085300
    15  N          0.86354870       0.44959900       0.62085300
    16  N          0.63645130       0.94959900       0.87914700
    17  H          0.22224000       0.57318600       0.40813400
    18  H          0.27776000       0.07318600       0.09186600
    19  H          0.77776000       0.42681400       0.59186600
    20  H          0.72224000       0.92681400       0.90813400
    21  C          0.69767150       0.67448110       0.45666700
    22  C          0.80232850       0.17448110       0.04333300
    23  C          0.30232850       0.32551890       0.54333300
    24  C          0.19767150       0.82551890       0.95666700
    25  C          0.84872150       0.71885120       0.48646800
    26  C          0.65127850       0.21885120       0.01353200
    27  C          0.15127850       0.28114880       0.51353200
    28  C          0.34872150       0.78114880       0.98646800
    29  H          0.85302000       0.77772900       0.52476500
    30  H          0.64698000       0.27772900       0.97523500
    31  H          0.14698000       0.22227100       0.47523500
    32  H          0.35302000       0.72227100       0.02476500
    33  C         -0.00878850       0.67725120       0.46032800
    34  C          0.50878850       0.17725120       0.03967200
    35  C          0.00878850       0.32274880       0.53967200
    36  C          0.49121150       0.82274880       0.96032800
    37  H          0.09067400       0.70744600       0.48172600
    38  H          0.40932600       0.20744600       0.01827400
    39  H          0.90932600       0.29255400       0.51827400
    40  H          0.59067400       0.79255400       0.98172600
    41  C         -0.01109850       0.59007110       0.40192700
    42  C          0.51109850       0.09007110       0.09807300
    43  C          0.01109850       0.40992890       0.59807300
    44  C          0.48890150       0.90992890       0.90192700
    45  C          0.83753170       0.54525130       0.37252900
    46  C          0.66246830       0.04525130       0.12747100
    47  C          0.16246830       0.45474870       0.62747100
    48  C          0.33753170       0.95474870       0.87252900
    49  H          0.83248500       0.48690100       0.33381700
    50  H          0.66751500       0.98690100       0.16618300
    51  H          0.16751500       0.51309900       0.66618300
    52  H          0.33248500       0.01309900       0.83381700
    53  C          0.69597170       0.58641130       0.40014900
    54  C          0.80402830       0.08641130       0.09985100
    55  C          0.30402830       0.41358870       0.59985100
    56  C          0.19597170       0.91358870       0.90014900
    57  H          0.59654300       0.55433400       0.38038800
    58  H          0.90345700       0.05433400       0.11961200
    59  H          0.40345700       0.44566600       0.61961200
    60  H          0.09654300       0.94566600       0.88038800
    61  C          0.54344150       0.71526120       0.48577700
    62  C          0.95655850       0.21526120       0.01422300
    63  C          0.45655850       0.28473880       0.51422300
    64  C          0.04344150       0.78473880       0.98577700
    65  C          0.16304150       0.47747110       0.31443800
    66  C          0.33695850       0.97747110       0.18556200
    67  C          0.83695850       0.52252890       0.68556200
    68  C          0.66304150       0.02252890       0.81443800
    69  C          0.07325180       0.48668130       0.24035900
    70  C          0.42674820       0.98668130       0.25964100
    71  C          0.92674820       0.51331870       0.75964100
    72  C          0.57325180       0.01331870       0.74035900
    73  H         -0.00925600       0.54190600       0.23268400
    74  H          0.50925600       0.04190600       0.26731600
    75  H          0.00925600       0.45809400       0.76731600
    76  H          0.49074400       0.95809400       0.73268400
    77  C          0.10622000       0.41387150       0.17779100
    78  C          0.39378000       0.91387150       0.32220900
    79  C          0.89378000       0.58612850       0.82220900
    80  C          0.60622000       0.08612850       0.67779100
    81  H          0.04492000       0.42034500       0.12838000
    82  H          0.45508000       0.92034500       0.37162000
    83  H          0.95508000       0.57965500       0.87162000
    84  H          0.54492000       0.07965500       0.62838000
    85  C          0.22792000       0.33225150       0.18769110
    86  C          0.27208000       0.83225150       0.31230890
    87  C          0.77208000       0.66774850       0.81230890
    88  C          0.72792000       0.16774850       0.68769110
    89  H          0.24834600       0.28280100       0.14564300
    90  H          0.25165400       0.78280100       0.35435700
    91  H          0.75165400       0.71719900       0.85435700
    92  H          0.74834600       0.21719900       0.64564300
    93  C          0.31882000       0.32457140       0.26019110
    94  C          0.18118000       0.82457140       0.23980890
    95  C          0.68118000       0.67542860       0.73980890
    96  C          0.81882000       0.17542860       0.76019110
    97  H          0.40262400       0.27020900       0.26703400
    98  H          0.09737600       0.77020900       0.23296600
    99  H          0.59737600       0.72979100       0.73296600
   100  H          0.90262400       0.22979100       0.76703400
   101  C          0.28796180       0.39639120       0.32336900
   102  C          0.21203820       0.89639120       0.17663100
   103  C          0.71203820       0.60360880       0.67663100
   104  C          0.78796180       0.10360880       0.82336900
   105  H          0.35136200       0.39031900       0.37219400
   106  H          0.14863800       0.89031900       0.12780600
   107  H          0.64863800       0.60968100       0.62780600
   108  H          0.85136200       0.10968100       0.87219400
   109  N          0.78401150       0.63037110       0.09266800
   110  N          0.71598850       0.13037110       0.40733200
   111  N          0.21598850       0.36962890       0.90733200
   112  N          0.28401150       0.86962890       0.59266800
   113  C          0.72702000       0.70676150       0.14223110
   114  C          0.77298000       0.20676150       0.35776890
   115  C          0.27298000       0.29323850       0.85776890
   116  C          0.22702000       0.79323850       0.64223110
   117  H          0.78014500       0.77782000       0.14945900
   118  H          0.71985500       0.27782000       0.35054100
   119  H          0.21985500       0.22218000       0.85054100
   120  H          0.28014500       0.72218000       0.64945900
   121  C          0.59202000       0.68572170       0.18378120
   122  C          0.90798000       0.18572170       0.31621880
   123  C          0.40798000       0.31427830       0.81621880
   124  C          0.09202000       0.81427830       0.68378120
   125  H          0.55473800       0.74164700       0.21801200
   126  H          0.94526200       0.24164700       0.28198800
   127  H          0.44526200       0.25835300       0.78198800
   128  H          0.05473800       0.75835300       0.71801200
   129  C          0.51482000       0.58219180       0.17378120
   130  C         -0.01482000       0.08219180       0.32621880
   131  C          0.48518000       0.41780820       0.82621880
   132  C          0.01482000       0.91780820       0.67378120
   133  H          0.42375800       0.56548900       0.20116300
   134  H          0.07624200       0.06548900       0.29883700
   135  H          0.57624200       0.43451100       0.79883700
   136  H          0.92375800       0.93451100       0.70116300
   137  C          0.57303000       0.50288180       0.12278140
   138  C          0.92697000       0.00288180       0.37721860
   139  C          0.42697000       0.49711820       0.87721860
   140  C          0.07303000      -0.00288180       0.62278140
   141  H          0.52208300       0.43115200       0.11474100
   142  H          0.97791700       0.93115200       0.38525900
   143  H          0.47791700       0.56884800       0.88525900
   144  H          0.02208300       0.06884800       0.61474100
   145  C          0.70712000       0.53006160       0.08365120
   146  C          0.79288000       0.03006160       0.41634880
   147  C          0.29288000       0.46993840       0.91634880
   148  C          0.20712000       0.96993840       0.58365120
   149  H          0.74601200       0.47529500       0.04905200
   150  H          0.75398800       0.97529500       0.45094800
   151  H          0.25398800       0.52470500       0.95094800
   152  H          0.24601200       0.02470500       0.54905200
