data_QIVNER
_symmetry_space_group_name_H-M    'P1'
_symmetry_Int_Tables_number       1
loop_
_symmetry_equiv_pos_site_id
_symmetry_equiv_pos_as_xyz
1 x,y,z
_cell_length_a                   8.43992
_cell_length_b                   13.09613
_cell_length_c                   13.74983
_cell_angle_alpha                69.1282
_cell_angle_beta                 89.7952
_cell_angle_gamma                74.8202
loop_
_atom_site_label
_atom_site_type_symbol
_atom_site_fract_x
_atom_site_fract_y
_atom_site_fract_z
     1  B          0.37764000       0.91152000       0.39742000
     2  B          0.62236000       0.08848000       0.60258000
     3  O          0.44232000       0.96691130       0.30149120
     4  O          0.55768000       0.03308870       0.69850880
     5  C          0.54173000       0.90352000       0.25431180
     6  C          0.45827000       0.09648000       0.74568820
     7  C          0.57203000       0.96012000       0.15174190
     8  C          0.42797000       0.03988000       0.84825810
     9  H          0.52010000       0.03920000       0.11780000
    10  H          0.47990000       0.96080000       0.88220000
    11  C          0.67613000       0.90262000       0.09914190
    12  C          0.32387000       0.09738000       0.90085810
    13  H          0.69480000       0.94180000       0.02920000
    14  H          0.30520000       0.05820000       0.97080000
    15  C          0.75483000       0.78542000       0.14919190
    16  C          0.24517000       0.21458000       0.85080810
    17  H          0.82540000       0.74520000       0.11290000
    18  H          0.17460000       0.25480000       0.88710000
    19  C          0.72873000       0.72952000       0.25088180
    20  C          0.27127000       0.27048000       0.74911820
    21  H          0.78470000       0.65100000       0.28460000
    22  H          0.21530000       0.34900000       0.71540000
    23  C          0.62083000       0.78559190       0.30666170
    24  C          0.37917000       0.21440810       0.69333830
    25  C          0.61073000       0.73242000       0.41876180
    26  C          0.38927000       0.26758000       0.58123820
    27  N          0.52362000       0.80094160       0.46834140
    28  N          0.47638000       0.19905840       0.53165860
    29  C          0.54843000       0.77711190       0.57205180
    30  C          0.45157000       0.22288810       0.42794820
    31  C          0.42193000       0.83995190       0.61862180
    32  C          0.57807000       0.16004810       0.38137820
    33  C          0.39593000       0.79542000       0.72513190
    34  C          0.60407000       0.20458000       0.27486810
    35  H          0.46810000       0.72520000       0.76990000
    36  H          0.53190000       0.27480000       0.23010000
    37  C          0.26753000       0.85202000       0.76542000
    38  C          0.73247000       0.14798000       0.23458000
    39  H          0.25230000       0.82140000       0.83750000
    40  H          0.74770000       0.17860000       0.16250000
    41  C          0.15863000       0.95572000       0.69912000
    42  C          0.84137000       0.04428000       0.30088000
    43  H          0.07010000      -0.00500000       0.72670000
    44  H          0.92990000       0.00500000       0.27330000
    45  C          0.18003000       0.00012000       0.59452000
    46  C          0.81997000      -0.00012000       0.40548000
    47  H          0.10590000       0.06970000       0.55010000
    48  H          0.89410000       0.93030000       0.44990000
    49  C          0.31013000       0.94332000       0.55369180
    50  C          0.68987000       0.05668000       0.44630820
    51  O          0.32982000       0.98875130       0.44994120
    52  O          0.67018000       0.01124870       0.55005880
    53  F          0.25188170       0.86763110       0.38081100
    54  F          0.74811830       0.13236890       0.61918900
    55  B          0.84403000       0.47702000       0.66312000
    56  B          0.15597000       0.52298000       0.33688000
    57  O          0.95642000       0.48631130       0.73398120
    58  O          0.04358000       0.51368870       0.26601880
    59  C          0.92133000       0.57582000       0.76528180
    60  C          0.07867000       0.42418000       0.23471820
    61  C          0.02763000       0.56952000       0.84581180
    62  C          0.97237000       0.43048000       0.15418820
    63  H          0.11550000       0.50260000       0.87880000
    64  H          0.88450000       0.49740000       0.12120000
    65  C          0.00513000       0.66042000       0.87752190
    66  C         -0.00513000       0.33958000       0.12247810
    67  H          0.07700000       0.65550000       0.93300000
    68  H          0.92300000       0.34450000       0.06700000
    69  C          0.87713000       0.76022000       0.82877190
    70  C          0.12287000       0.23978000       0.17122810
    71  H          0.86370000       0.82290000       0.85040000
    72  H          0.13630000       0.17710000       0.14960000
    73  C          0.77163000       0.76712000       0.75023180
    74  C          0.22837000       0.23288000       0.24976820
    75  H          0.68590000       0.83530000       0.71700000
    76  H          0.31410000       0.16470000       0.28300000
    77  C          0.78833000       0.67443190       0.71756170
    78  C          0.21167000       0.32556810       0.28243830
    79  C          0.68933000       0.68516190       0.62724180
    80  C          0.31067000       0.31483810       0.37275820
    81  N          0.73742000       0.60210160       0.58602140
    82  N          0.26258000       0.39789840       0.41397860
    83  C          0.68993000       0.61776190       0.48681180
    84  C          0.31007000       0.38223810       0.51318820
    85  C          0.72403000       0.51727190       0.45948180
    86  C          0.27597000       0.48272810       0.54051820
    87  C          0.63473000       0.51332000       0.37650180
    88  C          0.36527000       0.48668000       0.62349820
    89  H          0.54220000       0.57530000       0.33970000
    90  H          0.45780000       0.42470000       0.66030000
    91  C          0.67973000       0.41992000       0.34756190
    92  C          0.32027000       0.58008000       0.65243810
    93  H          0.61860000       0.41840000       0.29040000
    94  H          0.38140000       0.58160000       0.70960000
    95  C          0.81483000       0.32702000       0.40157190
    96  C          0.18517000       0.67298000       0.59842810
    97  H          0.84740000       0.26430000       0.37940000
    98  H          0.15260000       0.73570000       0.62060000
    99  C          0.90013000       0.32702000       0.48667180
   100  C          0.09987000       0.67298000       0.51332820
   101  H         -0.00960000       0.26360000       0.52430000
   102  H          0.00960000       0.73640000       0.47570000
   103  C          0.85343000       0.42002000       0.51737180
   104  C          0.14657000       0.57998000       0.48262820
   105  O          0.93634190       0.41745130       0.60224120
   106  O          0.06365810       0.58254870       0.39775880
   107  F          0.72684160       0.42411110       0.71561100
   108  F          0.27315840       0.57588890       0.28438900
   109  N          0.07203000       0.85712000       0.98488000
   110  N          0.92797000       0.14288000       0.01512000
   111  C          0.11804000       0.85382000       0.06362000
   112  C          0.88196000       0.14618000       0.93638000
   113  C          0.17254000       0.85243000       0.16362000
   114  C          0.82746000       0.14757000       0.83638000
   115  H          0.15270000       0.93070000       0.16050000
   116  H          0.84730000       0.06930000       0.83950000
   117  H          0.29070000       0.81330000       0.18040000
   118  H          0.70930000       0.18670000       0.81960000
   119  H          0.11120000       0.81230000       0.21780000
   120  H          0.88880000       0.18770000       0.78220000
   121  C          0.61334000       0.46742000       0.93552000
   122  C          0.38666000       0.53258000       0.06448000
   123  H          0.69040000       0.44500000       0.89120000
   124  H          0.30960000       0.55500000       0.10880000
   125  C          0.61893000       0.55583000       0.96542000
   126  C          0.38107000       0.44417000       0.03458000
   127  H          0.70060000       0.59460000       0.94200000
   128  H          0.29940000       0.40540000       0.05800000
   129  C          0.50624000       0.58902000       0.02952000
   130  C          0.49376000       0.41098000       0.97048000
   131  H          0.51060000       0.65060000       0.04950000
   132  H          0.48940000       0.34940000       0.95050000
