data_QIZCIP
_symmetry_space_group_name_H-M    'P1'
_symmetry_Int_Tables_number       1
loop_
_symmetry_equiv_pos_site_id
_symmetry_equiv_pos_as_xyz
1 x,y,z
_cell_length_a                   3.98362
_cell_length_b                   12.35904
_cell_length_c                   13.30356
_cell_angle_alpha                94.7123
_cell_angle_beta                 90.1503
_cell_angle_gamma                95.4383
loop_
_atom_site_label
_atom_site_type_symbol
_atom_site_fract_x
_atom_site_fract_y
_atom_site_fract_z
     1  I          0.27906500       0.75595200       0.57223200
     2  I          0.72093500       0.24404800       0.42776800
     3  F          0.22705000       0.85579160       0.35710150
     4  F          0.77295000       0.14420840       0.64289850
     5  F          0.00495000       0.03816160       0.30190160
     6  F         -0.00495000       0.96183840       0.69809840
     7  C          0.11748000       0.90292000       0.52973000
     8  C          0.88252000       0.09708000       0.47027000
     9  C          0.11458000       0.92633000       0.42973000
    10  C          0.88542000       0.07367000       0.57027000
    11  C         -0.00148000       0.02113000       0.40033000
    12  C          0.00148000       0.97887000       0.59967000
    13  Br         0.74292100       0.17383300       0.12537300
    14  Br         0.25707900       0.82616700       0.87462700
    15  S          0.71352000       0.34683700       0.96936700
    16  S          0.28648000       0.65316300       0.03063300
    17  N          0.47137000       0.56542000       0.64692000
    18  N          0.52863000       0.43458000       0.35308000
    19  C          0.60999000       0.21543000      -0.00017000
    20  C          0.39001000       0.78457000       0.00017000
    21  C          0.43749000       0.15263000       0.92503000
    22  C          0.56251000       0.84737000       0.07497000
    23  H          0.36060000       0.07790000       0.92890000
    24  H          0.63940000       0.92210000       0.07110000
    25  C          0.38569000       0.21113000       0.84093000
    26  C          0.61431000       0.78887000       0.15907000
    27  H          0.26790000       0.17960000       0.78180000
    28  H          0.73210000       0.82040000       0.21820000
    29  C          0.52048000       0.31783000       0.85193000
    30  C          0.47952000       0.68217000       0.14807000
    31  C          0.33609000       0.46333000       0.62453000
    32  C          0.66391000       0.53667000       0.37547000
    33  H          0.22650000       0.44630000       0.56080000
    34  H          0.77350000       0.55370000       0.43920000
    35  C          0.34538000       0.38123000       0.68783000
    36  C          0.65462000       0.61877000       0.31217000
    37  H          0.24200000       0.31020000       0.66800000
    38  H          0.75800000       0.68980000       0.33200000
    39  C          0.50798000       0.40283000       0.78183000
    40  C          0.49202000       0.59717000       0.21817000
    41  C          0.65488000       0.50863000       0.80463000
    42  C          0.34512000       0.49137000       0.19537000
    43  H          0.77160000       0.52770000       0.86690000
    44  H          0.22840000       0.47230000       0.13310000
    45  C          0.62989000       0.58553000       0.73653000
    46  C          0.37011000       0.41447000       0.26347000
    47  H          0.73120000       0.65730000       0.75410000
    48  H          0.26880000       0.34270000       0.24590000
