data_QIZHIU
_symmetry_space_group_name_H-M    'P1'
_symmetry_Int_Tables_number       1
loop_
_symmetry_equiv_pos_site_id
_symmetry_equiv_pos_as_xyz
1 x,y,z
_cell_length_a                   10.35913
_cell_length_b                   12.19014
_cell_length_c                   14.87135
_cell_angle_alpha                90.0
_cell_angle_beta                 107.1692
_cell_angle_gamma                90.0
loop_
_atom_site_label
_atom_site_type_symbol
_atom_site_fract_x
_atom_site_fract_y
_atom_site_fract_z
     1  C          0.25283000       0.76633000       0.95653000
     2  C          0.74717000       0.26633000       0.04347000
     3  H          0.26735400       0.75430500       0.89505100
     4  H          0.73264600       0.25430500       0.10494900
     5  H          0.33821000       0.78792300       0.00234200
     6  H          0.66179000       0.28792300      -0.00234200
     7  H          0.18581000       0.82454800       0.95122100
     8  H          0.81419000       0.32454800       0.04877900
     9  N          0.89222000       0.55185170       0.82441140
    10  N          0.10778000       0.05185170       0.17558860
    11  O          0.07100160       0.64470150       0.91363110
    12  O          0.92899840       0.14470150       0.08636890
    13  C          0.20212000       0.66142000       0.98882180
    14  C          0.79788000       0.16142000       0.01117820
    15  N          0.58949180       0.32863160       0.52932130
    16  N          0.41050820       0.82863160       0.47067870
    17  O          0.04764170       0.55012170       0.74186130
    18  O          0.95235830       0.05012170       0.25813870
    19  C         -0.00278000       0.55692000       0.91285160
    20  C          0.00278000       0.05692000       0.08714840
    21  N          0.57423190       0.47079160       0.85785140
    22  N          0.42576810       0.97079160       0.14214860
    23  O          0.51887170       0.50279150       0.55064120
    24  O          0.48112830       0.00279150       0.44935880
    25  C          0.93072000       0.54382000       0.74051160
    26  C          0.06928000       0.04382000       0.25948840
    27  N          0.69682180       0.52360160       0.88538130
    28  N          0.30317820       0.02360160       0.11461870
    29  O          0.00670170       0.48996160       0.97327120
    30  O         -0.00670170      -0.01003840       0.02672880
    31  C          0.81562000       0.52382000       0.65192150
    32  C          0.18438000       0.02382000       0.34807850
    33  H          0.85320500       0.51004700       0.59902000
    34  H          0.14679500       0.01004700       0.40098000
    35  H          0.75910300       0.59069500       0.63689400
    36  H          0.24089700       0.09069500       0.36310600
    37  C          0.72492000       0.42515180       0.66063150
    38  C          0.27508000       0.92515180       0.33936850
    39  C          0.59742000       0.42669190       0.57421150
    40  C          0.40258000       0.92669190       0.42578850
    41  C          0.47012000       0.29462000       0.45334160
    42  C          0.52988000       0.79462000       0.54665840
    43  H          0.39002100       0.33400300       0.46039400
    44  H          0.60997900       0.83400300       0.53960600
    45  H          0.45503900       0.21516400       0.45967100
    46  H          0.54496100       0.71516400       0.54032900
    47  C          0.48202000       0.31652000       0.35642160
    48  C          0.51798000       0.81652000       0.64357840
    49  C          0.50033000       0.23052000       0.29931180
    50  C          0.49967000       0.73052000       0.70068820
    51  H          0.50812900       0.15736600       0.32230100
    52  H          0.49187100       0.65736600       0.67769900
    53  C          0.50713000       0.25172000       0.20882180
    54  C          0.49287000       0.75172000       0.79117820
    55  H          0.51974400       0.19281800       0.17038700
    56  H          0.48025600       0.69281800       0.82961300
    57  C          0.49563000       0.35713000       0.17480180
    58  C          0.50437000       0.85713000       0.82519820
    59  H          0.49920800       0.37094500       0.11272700
    60  H          0.50079200       0.87094500       0.88727300
    61  C          0.17543000       0.67934000       0.08192000
    62  C          0.82457000       0.17934000       0.91808000
    63  H          0.10709400       0.73676200       0.07520700
    64  H          0.89290600       0.23676200       0.92479300
    65  H          0.25924600       0.70181000       0.12897000
    66  H          0.74075400       0.20181000       0.87103000
    67  H          0.14262100       0.61094600       0.10213400
    68  H          0.85737900       0.11094600       0.89786600
    69  C          0.76542000       0.50765190       0.82123150
    70  C          0.23458000       0.00765190       0.17876850
    71  C          0.68622000       0.44499190       0.74939150
    72  C          0.31378000       0.94499190       0.25060850
    73  C          0.78392000       0.31401190       0.65228150
    74  C          0.21608000       0.81401190       0.34771850
    75  C          0.70022000       0.26060190       0.57362150
    76  C          0.29978000       0.76060190       0.42637850
    77  C          0.47863000       0.44343000       0.23112000
    78  C          0.52137000       0.94343000       0.76888000
    79  H          0.47229200       0.51646800       0.20797400
    80  H          0.52770800       0.01646800       0.79202600
    81  C          0.47083000       0.42302000       0.32152190
    82  C          0.52917000       0.92302000       0.67847810
    83  H          0.45780600       0.48210600       0.35953800
    84  H          0.54219400       0.98210600       0.64046200
    85  C          0.72742000       0.15582000       0.54796180
    86  C          0.27258000       0.65582000       0.45203820
    87  H          0.66916500       0.11974300       0.49468100
    88  H          0.33083500       0.61974300       0.50531900
    89  C          0.84513000       0.10582000       0.60462000
    90  C          0.15487000       0.60582000       0.39538000
    91  H          0.86792300       0.03433500       0.58877400
    92  H          0.13207700       0.53433500       0.41122600
    93  C          0.92852000       0.15732000       0.68262000
    94  C          0.07148000       0.65732000       0.31738000
    95  H          0.00695600       0.12060600       0.71989400
    96  H         -0.00695600       0.62060600       0.28010600
    97  C          0.89942000       0.26272000       0.70753160
    98  C          0.10058000       0.76272000       0.29246840
    99  H          0.95739800       0.29838300       0.76111300
   100  H          0.04260200       0.79838300       0.23888700
   101  C          0.56792000       0.42392180       0.77581160
   102  C          0.43208000       0.92392180       0.22418840
   103  C          0.72572000       0.59112000       0.96700160
   104  C          0.27428000       0.09112000       0.03299840
   105  C          0.68903000       0.55562000       0.04435180
   106  C          0.31097000       0.05562000       0.95564820
   107  H          0.64948200       0.48525500       0.04418600
   108  H          0.35051800       0.98525500       0.95581400
   109  C          0.71053000       0.62363000       0.12212000
   110  C          0.28947000       0.12363000       0.87788000
   111  H          0.68534400       0.59958700       0.17532200
   112  H          0.31465600       0.09958700       0.82467800
   113  C          0.76803000       0.72553000       0.12282000
   114  C          0.23197000       0.22553000       0.87718000
   115  H          0.78136200       0.77187200       0.17610700
   116  H          0.21863800       0.27187200       0.82389300
   117  C          0.80653000       0.76042000       0.04552000
   118  C          0.19347000       0.26042000       0.95448000
   119  H          0.84810800       0.83005200       0.04648300
   120  H          0.15189200       0.33005200       0.95351700
   121  C          0.78413000       0.69352000       0.96684190
   122  C          0.21587000       0.19352000       0.03315810
   123  H          0.80850100       0.71758500       0.91333900
   124  H          0.19149900       0.21758500       0.08666100
   125  C          0.44462000       0.36416190       0.72127150
   126  C          0.55538000       0.86416190       0.27872850
   127  C          0.31892000       0.41462000       0.70070170
   128  C          0.68108000       0.91462000       0.29929830
   129  H          0.31064400       0.48594100       0.72409100
   130  H          0.68935600       0.98594100       0.27590900
   131  C          0.20503000       0.35972000       0.64549190
   132  C          0.79497000       0.85972000       0.35450810
   133  H          0.11919400       0.39434700       0.63097200
   134  H          0.88080600       0.89434700       0.36902800
   135  C          0.21513000       0.25583000       0.61166180
   136  C          0.78487000       0.75583000       0.38833820
   137  H          0.13690700       0.21943200       0.57356300
   138  H          0.86309300       0.71943200       0.42643700
   139  C          0.34123000       0.20442000       0.63379190
   140  C          0.65877000       0.70442000       0.36620810
   141  H          0.34856700       0.13223000       0.61163400
   142  H          0.65143300       0.63223000       0.38836600
   143  C          0.45512000       0.25832000       0.68787170
   144  C          0.54488000       0.75832000       0.31212830
   145  H          0.54072200       0.22330500       0.70240200
   146  H          0.45927800       0.72330500       0.29759800
   147  C          0.29483000       0.56603000       0.98883000
   148  C          0.70517000       0.06603000       0.01117000
   149  H          0.26183000       0.50067000       0.01363800
   150  H          0.73817000       0.00067000       0.98636200
   151  H          0.38619300       0.58355000       0.02851700
   152  H          0.61380700       0.08355000       0.97148300
   153  H          0.29668600       0.55165300       0.92439100
   154  H          0.70331400       0.05165300       0.07560900
   155  O          0.86493000       0.77993000       0.66483000
   156  O          0.13507000       0.27993000       0.33517000
   157  O          0.05883000       0.86543000       0.72333190
   158  O          0.94117000       0.36543000       0.27666810
   159  C          0.89995000       0.89114000       0.80263000
   160  C          0.10005000       0.39114000       0.19737000
   161  H          0.80472700       0.87634800       0.79655100
   162  H          0.19527300       0.37634800       0.20344900
   163  H          0.91420000       0.97044600       0.80110100
   164  H          0.08580000       0.47044600       0.19889900
   165  H          0.95673600       0.86114600       0.86230600
   166  H          0.04326400       0.36114600       0.13769400
   167  C          0.93624000       0.83873000       0.72363000
   168  C          0.06376000       0.33873000       0.27637000
   169  C          0.11428000       0.81595000       0.65374000
   170  C          0.88572000       0.31595000       0.34626000
   171  H          0.20413700       0.78454500       0.68581100
   172  H          0.79586300       0.28454500       0.31418900
   173  H          0.05456000       0.75532600       0.62175400
   174  H          0.94544000       0.25532600       0.37824600
   175  C          0.12677000       0.89315000       0.58594000
   176  C          0.87323000       0.39315000       0.41406000
   177  H          0.03734000       0.92230200       0.55229000
   178  H          0.96266000       0.42230200       0.44771000
   179  H          0.16582300       0.85725200       0.54095900
   180  H          0.83417700       0.35725200       0.45904100
   181  H          0.18570000       0.95323500       0.61726200
   182  H          0.81430000       0.45323500       0.38273800
