data_QMBTCQ
_symmetry_space_group_name_H-M    'P1'
_symmetry_Int_Tables_number       1
loop_
_symmetry_equiv_pos_site_id
_symmetry_equiv_pos_as_xyz
1 x,y,z
_cell_length_a                   7.502
_cell_length_b                   10.073
_cell_length_c                   17.754
_cell_angle_alpha                102.795
_cell_angle_beta                 106.171
_cell_angle_gamma                98.914
loop_
_atom_site_label
_atom_site_type_symbol
_atom_site_fract_x
_atom_site_fract_y
_atom_site_fract_z
     1  H          0.69100000       0.03700000      -0.00300000
     2  H          0.30900000       0.96300000       0.00300000
     3  H          0.74700000       0.93700000       0.87500000
     4  H          0.25300000       0.06300000       0.12500000
     5  C          0.96950000       0.06370000       0.07340000
     6  C          0.03050000       0.93630000       0.92660000
     7  C          0.82000000       0.02440000      -0.00270000
     8  C          0.18000000       0.97560000       0.00270000
     9  C          0.84910000       0.96250000       0.92730000
    10  C          0.15090000       0.03750000       0.07270000
    11  C          0.94020000       0.13060000       0.14620000
    12  C          0.05980000       0.86940000       0.85380000
    13  C          0.76170000       0.16030000       0.14770000
    14  C          0.23830000       0.83970000       0.85230000
    15  C          0.08450000       0.17090000       0.22350000
    16  C          0.91550000       0.82910000       0.77650000
    17  N          0.62020000       0.18620000       0.15120000
    18  N          0.37980000       0.81380000       0.84880000
    19  N          0.19600000       0.20640000       0.28730000
    20  N          0.80400000       0.79360000       0.71270000
    21  H          0.81100000       0.42600000       0.09500000
    22  H          0.18900000       0.57400000       0.90500000
    23  H          0.82800000       0.32000000       0.96900000
    24  H          0.17200000       0.68000000       0.03100000
    25  H          0.40300000       0.34000000       0.06900000
    26  H          0.59700000       0.66000000       0.93100000
    27  H          0.39800000       0.45100000       0.19900000
    28  H          0.60200000       0.54900000       0.80100000
    29  C          0.10380000       0.44730000       0.16200000
    30  C          0.89620000       0.55270000       0.83800000
    31  C          0.93710000       0.40800000       0.09140000
    32  C          0.06290000       0.59200000       0.90860000
    33  C          0.94430000       0.34720000       0.01630000
    34  C          0.05570000       0.65280000       0.98370000
    35  C          0.11880000       0.31910000       0.00570000
    36  C          0.88120000       0.68090000      -0.00570000
    37  C          0.28530000       0.35890000       0.07670000
    38  C          0.71470000       0.64110000       0.92330000
    39  C          0.27830000       0.42030000       0.15100000
    40  C          0.72170000       0.57970000       0.84900000
    41  C          0.10200000       0.51240000       0.23950000
    42  C          0.89800000       0.48760000       0.76050000
    43  C          0.93390000       0.54580000       0.25360000
    44  C          0.06610000       0.45420000       0.74640000
    45  C          0.27130000       0.55400000       0.30760000
    46  C          0.72870000       0.44600000       0.69240000
    47  C          0.13080000       0.25810000       0.93010000
    48  C          0.86920000       0.74190000       0.06990000
    49  C         -0.02740000       0.21670000       0.85690000
    50  C          0.02740000       0.78330000       0.14310000
    51  C          0.30770000       0.23570000       0.92030000
    52  C          0.69230000       0.76430000       0.07970000
    53  N          0.80020000       0.57380000       0.26590000
    54  N          0.19980000       0.42620000       0.73410000
    55  N          0.84840000       0.18290000       0.79670000
    56  N          0.15160000       0.81710000       0.20330000
    57  N          0.45000000       0.21750000       0.91310000
    58  N          0.55000000       0.78250000       0.08690000
    59  N          0.40730000       0.58710000       0.36290000
    60  N          0.59270000       0.41290000       0.63710000
    61  H          0.26400000       0.46000000       0.45500000
    62  H          0.73600000       0.54000000       0.54500000
    63  H          0.96100000       0.30700000       0.39000000
    64  H          0.03900000       0.69300000       0.61000000
    65  H          0.44400000       0.68400000       0.53600000
    66  H          0.55600000       0.31600000       0.46400000
    67  H          0.45300000       0.66700000       0.62600000
    68  H          0.54700000       0.33300000       0.37400000
    69  H          0.43800000       0.82500000       0.72300000
    70  H          0.56200000       0.17500000       0.27700000
    71  H          0.42800000       0.06100000       0.77800000
    72  H          0.57200000       0.93900000       0.22200000
    73  H          0.33000000       0.20100000       0.69200000
    74  H          0.67000000       0.79900000       0.30800000
    75  H          0.22600000       0.22800000       0.55400000
    76  H          0.77400000       0.77200000       0.44600000
    77  H          0.16700000       0.13200000       0.41000000
    78  H          0.83300000       0.86800000       0.59000000
    79  H          0.18600000       0.90600000       0.36100000
    80  H          0.81400000       0.09400000       0.63900000
    81  H          0.27700000       0.76300000       0.44800000
    82  H          0.72300000       0.23700000       0.55200000
    83  C          0.15260000       0.47700000       0.47380000
    84  C          0.84740000       0.52300000       0.52620000
    85  C         -0.02410000       0.38490000       0.43700000
    86  C          0.02410000       0.61510000       0.56300000
    87  C          0.17780000       0.59330000       0.53720000
    88  C          0.82220000       0.40670000       0.46280000
    89  C          0.37450000       0.68990000       0.57750000
    90  C          0.62550000       0.31010000       0.42250000
    91  C          0.40700000       0.89180000       0.68740000
    92  C          0.59300000       0.10820000       0.31260000
    93  C          0.39460000       0.02610000       0.71950000
    94  C          0.60540000       0.97390000       0.28050000
    95  C          0.33930000       0.10630000       0.66940000
    96  C          0.66070000       0.89370000       0.33060000
    97  C          0.29420000       0.05240000       0.58480000
    98  C          0.70580000       0.94760000       0.41520000
    99  C          0.23710000       0.13090000       0.52950000
   100  C          0.76290000       0.86910000       0.47050000
   101  C          0.20000000       0.07580000       0.44910000
   102  C          0.80000000       0.92420000       0.55090000
   103  C          0.21360000       0.93930000       0.41890000
   104  C          0.78640000       0.06070000       0.58110000
   105  C          0.26570000       0.85740000       0.46940000
   106  C          0.73430000       0.14260000       0.53060000
   107  C          0.30700000       0.91390000       0.55310000
   108  C          0.69300000       0.08610000       0.44690000
   109  N          0.36410000       0.83770000       0.60770000
   110  N          0.63590000       0.16230000       0.39230000
