data_QOCWAH
_symmetry_space_group_name_H-M    'P1'
_symmetry_Int_Tables_number       1
loop_
_symmetry_equiv_pos_site_id
_symmetry_equiv_pos_as_xyz
1 x,y,z
_cell_length_a                   6.090812
_cell_length_b                   22.7105
_cell_length_c                   9.8212
_cell_angle_alpha                90.0
_cell_angle_beta                 105.633
_cell_angle_gamma                90.0
loop_
_atom_site_label
_atom_site_type_symbol
_atom_site_fract_x
_atom_site_fract_y
_atom_site_fract_z
     1  Cl         0.02226800       0.30761418       0.68427400
     2  Cl        -0.02226800       0.80761418       0.81572600
     3  Cl        -0.02226800       0.69238582       0.31572600
     4  Cl         0.02226800       0.19238582       0.18427400
     5  O          0.46598000       0.18599500       0.97334140
     6  O          0.53402000       0.68599500       0.52665860
     7  O          0.53402000       0.81400500       0.02665860
     8  O          0.46598000       0.31400500       0.47334140
     9  O          0.72577000       0.44981600       0.71861160
    10  O          0.27423000       0.94981600       0.78138840
    11  O          0.27423000       0.55018400       0.28138840
    12  O          0.72577000       0.05018400       0.21861160
    13  O          0.92778000       0.43719500       0.09085140
    14  O          0.07222000       0.93719500       0.40914860
    15  O          0.07222000       0.56280500       0.90914860
    16  O          0.92778000       0.06280500       0.59085140
    17  N          0.39607000       0.35859600       0.94370140
    18  N          0.60393000       0.85859600       0.55629860
    19  N          0.60393000       0.64140400       0.05629860
    20  N          0.39607000       0.14140400       0.44370140
    21  N          0.57097000       0.27184600       0.88711150
    22  N          0.42903000       0.77184600       0.61288850
    23  N          0.42903000       0.72815400       0.11288850
    24  N          0.57097000       0.22815400       0.38711150
    25  N          0.64717000       0.36243600       0.80528150
    26  N          0.35283000       0.86243600       0.69471850
    27  N          0.35283000       0.63756400       0.19471850
    28  N          0.64717000       0.13756400       0.30528150
    29  N          0.46027000       0.45013600       0.84399160
    30  N          0.53973000       0.95013600       0.65600840
    31  N          0.53973000       0.54986400       0.15600840
    32  N          0.46027000       0.04986400       0.34399160
    33  N          0.20107000       0.44243600       0.97523160
    34  N          0.79893000       0.94243600       0.52476840
    35  N          0.79893000       0.55756400       0.02476840
    36  N          0.20107000       0.05756400       0.47523160
    37  N          0.11757000       0.35217600       0.07232150
    38  N          0.88243000       0.85217600       0.42767850
    39  N          0.88243000       0.64782400       0.92767850
    40  N          0.11757000       0.14782400       0.57232150
    41  N          0.30417000       0.26945600       0.02598160
    42  N          0.69583000       0.76945600       0.47401840
    43  N          0.69583000       0.73054400       0.97401840
    44  N          0.30417000       0.23054400       0.52598160
    45  C          0.53917000       0.32827700       0.87894170
    46  C          0.46083000       0.82827700       0.62105830
    47  C          0.46083000       0.67172300       0.12105830
    48  C          0.53917000       0.17172300       0.37894170
    49  C          0.35767000       0.41847700       0.91748170
    50  C          0.64233000       0.91847700       0.58251830
    51  C          0.64233000       0.58152300       0.08251830
    52  C          0.35767000       0.08152300       0.41748170
    53  C          0.26647000       0.32760700       0.01665170
    54  C          0.73353000       0.82760700       0.48334830
    55  C          0.73353000       0.67239300       0.98334830
    56  C          0.26647000       0.17239300       0.51665170
    57  C          0.45087000       0.23918700       0.96170170
    58  C          0.54913000       0.73918700       0.53829830
    59  C          0.54913000       0.76081300       0.03829830
    60  C          0.45087000       0.26081300       0.46170170
    61  C          0.61607000       0.42318800       0.78581190
    62  C          0.38393000       0.92318800       0.71418810
    63  C          0.38393000       0.57681200       0.21418810
    64  C          0.61607000       0.07681200       0.28581190
    65  C          0.07527000       0.41134700       0.04985170
    66  C          0.92473000       0.91134700       0.45014830
    67  C          0.92473000       0.58865300       0.95014830
    68  C          0.07527000       0.08865300       0.54985170
    69  H          0.74150000       0.34561100       0.76730000
    70  H          0.25850000       0.84561100       0.73270000
    71  H          0.25850000       0.65438900       0.23270000
    72  H          0.74150000       0.15438900       0.26730000
    73  H          0.16560000       0.47931100       0.95720000
    74  H          0.83440000       0.97931100       0.54280000
    75  H          0.83440000       0.52068900       0.04280000
    76  H          0.16560000       0.02068900       0.45720000
    77  H          0.22850000       0.24971200       0.07030000
    78  H          0.77150000       0.74971200       0.42970000
    79  H          0.77150000       0.75028800       0.92970000
    80  H          0.22850000       0.25028800       0.57030000
    81  O          0.23613000       0.68496700       0.78770150
    82  O          0.76387000       0.18496700       0.71229850
    83  O          0.76387000       0.31503300       0.21229850
    84  O          0.23613000       0.81503300       0.28770150
    85  H          0.24160000       0.71481500       0.76330000
    86  H          0.75840000       0.21481500       0.73670000
    87  H          0.75840000       0.28518500       0.23670000
    88  H          0.24160000       0.78518500       0.26330000
    89  H          0.11370000       0.68851600       0.83140000
    90  H          0.88630000       0.18851600       0.66860000
    91  H          0.88630000       0.31148400       0.16860000
    92  H          0.11370000       0.81148400       0.33140000
    93  N          0.17583000       0.60583700       0.57548160
    94  N          0.82417000       0.10583700       0.92451840
    95  N          0.82417000       0.39416300       0.42451840
    96  N          0.17583000       0.89416300       0.07548160
    97  C          0.94836000       0.57756900       0.53852000
    98  C          0.05164000       0.07756900       0.96148000
    99  C          0.05164000       0.42243100       0.46148000
   100  C          0.94836000       0.92243100       0.03852000
   101  C          0.36804000       0.56409900       0.62222000
   102  C          0.63196000       0.06409900       0.87778000
   103  C          0.63196000       0.43590100       0.37778000
   104  C          0.36804000       0.93590100       0.12222000
   105  H          0.19640000       0.62761000       0.49520000
   106  H          0.80360000       0.12761000       0.00480000
   107  H          0.80360000       0.37239000       0.50480000
   108  H          0.19640000       0.87239000      -0.00480000
   109  H          0.17940000       0.63221000       0.64720000
   110  H          0.82060000       0.13221000       0.85280000
   111  H          0.82060000       0.36779000       0.35280000
   112  H          0.17940000       0.86779000       0.14720000
   113  H          0.82450000       0.60881100       0.52130000
   114  H          0.17550000       0.10881100       0.97870000
   115  H          0.17550000       0.39118900       0.47870000
   116  H          0.82450000       0.89118900       0.02130000
   117  H          0.94060000       0.55271000       0.45420000
   118  H          0.05940000       0.05271000       0.04580000
   119  H          0.05940000       0.44729000       0.54580000
   120  H          0.94060000       0.94729000       0.95420000
   121  H          0.93060000       0.55201000       0.62130000
   122  H          0.06940000       0.05201000       0.87870000
   123  H          0.06940000       0.44799000       0.37870000
   124  H          0.93060000       0.94799000       0.12130000
   125  H          0.50650000       0.58681100       0.64930000
   126  H          0.49350000       0.08681100       0.85070000
   127  H          0.49350000       0.41318900       0.35070000
   128  H          0.50650000       0.91318900       0.14930000
   129  H          0.36950000       0.53661100       0.54830000
   130  H          0.63050000       0.03661100       0.95170000
   131  H          0.63050000       0.46338900       0.45170000
   132  H          0.36950000       0.96338900       0.04830000
   133  H          0.34440000       0.54231000       0.69830000
   134  H          0.65560000       0.04231000       0.80170000
   135  H          0.65560000       0.45769000       0.30170000
   136  H          0.34440000       0.95769000       0.19830000
