data_QODKUR
_symmetry_space_group_name_H-M    'P1'
_symmetry_Int_Tables_number       1
loop_
_symmetry_equiv_pos_site_id
_symmetry_equiv_pos_as_xyz
1 x,y,z
_cell_length_a                   8.48892
_cell_length_b                   13.71562
_cell_length_c                   14.09143
_cell_angle_alpha                110.84401
_cell_angle_beta                 100.80701
_cell_angle_gamma                107.04801
loop_
_atom_site_label
_atom_site_type_symbol
_atom_site_fract_x
_atom_site_fract_y
_atom_site_fract_z
     1  S          0.37097880       0.79280800       0.10035800
     2  S          0.19084880       0.56424800       0.15807800
     3  S          0.66649880       0.86824800       0.29552800
     4  S          0.50723880       0.68217800       0.34689700
     5  S          0.00385120       0.97072800       0.50471700
     6  S          0.84198880       0.78776800       0.55873700
     7  S          0.32571120       0.08567800       0.68603800
     8  S          0.13771120       0.86895800       0.75735700
     9  C          0.15396000       0.67703000       0.03302000
    10  H          0.07350000       0.69700000       0.07270000
    11  C          0.15656000       0.56353000       0.02652000
    12  H          0.25230000       0.54990000      -0.00100000
    13  C          0.45935000       0.76843000       0.20783000
    14  C          0.38795000       0.68143000       0.23163000
    15  C          0.68305000       0.80543000       0.38093000
    16  C          0.82805000       0.84953000       0.47153000
    17  C          0.12515000       0.97173000       0.61953000
    18  C          0.04955000       0.88653000       0.64523000
    19  C          0.43104000       0.04903000       0.78562000
    20  H          0.46770000      -0.01340000       0.74890000
    21  C          0.30824000       0.01003000       0.84303000
    22  H          0.25310000       0.06550000       0.86740000
    23  C          0.09645000       0.67554000       0.92197000
    24  H          0.09650000       0.74980000       0.93120000
    25  H         -0.02120000       0.61710000       0.88040000
    26  H          0.17760000       0.65880000       0.88380000
    27  C         -0.01535000       0.46403000       0.95527000
    28  H         -0.00610000       0.39380000       0.95360000
    29  H          0.95740000       0.45830000       0.88240000
    30  H          0.89170000       0.47550000       0.98420000
    31  C          0.59365000       0.15663000       0.85983000
    32  H          0.66660000       0.17640000       0.81790000
    33  H          0.65970000       0.14320000       0.91550000
    34  H          0.55860000       0.21900000       0.89380000
    35  C          0.40285000      -0.00126000       0.94003000
    36  H          0.31960000       0.97410000       0.97480000
    37  H          0.49530000       0.07220000      -0.00860000
    38  H          0.45400000       0.94260000       0.91600000
    39  S          0.77720880       0.58682800       0.18079800
    40  S          0.57190870       0.37629800       0.25402800
    41  S          0.06735120       0.66393800       0.37980700
    42  S          0.89595880       0.48351800       0.43440800
    43  S          0.40164120       0.76468800       0.59302700
    44  S          0.22565120       0.58523800       0.64740800
    45  S          0.70959120       0.88278800       0.78392800
    46  S          0.51395120       0.66110800       0.84701700
    47  C          0.55706000       0.47493000       0.11163000
    48  H          0.47490000       0.50430000       0.14290000
    49  C          0.53336000       0.36333000       0.11802000
    50  H          0.61250000       0.33110000       0.08550000
    51  C          0.85625000       0.56723000       0.29283000
    52  C          0.77825000       0.48533000       0.32083000
    53  C          0.07605000       0.60483000       0.46933000
    54  C          0.21795000       0.64793000       0.56053000
    55  C          0.51205000       0.76783000       0.71193000
    56  C          0.43155000       0.68223000       0.73603000
    57  C          0.80684000       0.85213000       0.89152000
    58  H          0.86250000       0.79800000       0.86280000
    59  C          0.67704000       0.80223000       0.94012000
    60  H          0.61730000       0.85440000       0.96620000
    61  C          0.51644000       0.46114000      -0.00403000
    62  H          0.53280000       0.53490000      -0.00400000
    63  H          0.39560000       0.40790000       0.95450000
    64  H          0.59520000       0.43170000       0.96340000
    65  C          0.34375000       0.27853000       0.05833000
    66  H          0.33090000       0.20680000       0.06230000
    67  H          0.31230000       0.26510000       0.98290000
    68  H          0.26690000       0.30930000       0.09160000
    69  C          0.94995000       0.96733000       0.97423000
    70  H          0.03030000      -0.00380000       0.93990000
    71  H          0.01410000       0.95800000       0.03370000
    72  H          0.89640000       0.02110000       0.00190000
    73  C          0.77055000       0.78573000       0.03453000
    74  H          0.68520000       0.75380000       0.06470000
    75  H          0.85800000       0.85910000       0.09010000
    76  H          0.82780000       0.73380000       0.00880000
    77  F          0.21727000       0.44232000       0.31092000
    78  F          0.49597000       0.53542000       0.47872000
    79  F          0.01027000       0.12822000       0.38882000
    80  F          0.29077000       0.22072000       0.55632000
    81  N          0.89345000       0.30723000       0.10983000
    82  N          0.70045000       0.03363000       0.18593000
    83  N          0.81635000       0.62343000       0.67143000
    84  N          0.62934000       0.34974000       0.74814000
    85  C          0.09835000       0.27943000       0.33923000
    86  C          0.23215000       0.38543000       0.36983000
    87  C          0.37905000       0.43363000       0.45733000
    88  C          0.41215000       0.38473000       0.52743000
    89  C          0.27434000       0.27784000       0.49673000
    90  C          0.13065000       0.23083000       0.40943000
    91  C          0.92155000       0.27354000       0.17274000
    92  C          0.94935000       0.22743000       0.24683000
    93  C          0.81315000       0.12044000       0.21674000
    94  C          0.70224000       0.54003000       0.64673000
    95  C          0.56365000       0.43523000       0.61843000
    96  C          0.59564000       0.38484000       0.68944000
    97  F          0.61613000       0.23552000       0.39012000
    98  F          0.89543000       0.32512000       0.55532000
    99  F          0.40613000       0.91908000       0.46421190
   100  F          0.68593000       0.00982000       0.63112000
   101  N          0.27825000       0.10984000       0.19693000
   102  N          0.08715000       0.83437000       0.27013000
   103  N          0.21175000       0.41243000       0.74823000
   104  N          0.01245000       0.13843000       0.82733000
   105  C          0.49395000       0.07273000       0.41723000
   106  C          0.62936000       0.17724000       0.44813000
   107  C          0.77635000       0.22503000       0.53393000
   108  C          0.80935000       0.17433000       0.60423000
   109  C          0.67055000       0.06843000       0.57243000
   110  C          0.52535000       0.02183000       0.48563000
   111  C          0.31206000       0.07324000       0.25674000
   112  C          0.34205000       0.02433000       0.32823000
   113  C          0.20425000       0.91826000       0.29873000
   114  C          0.09906000       0.32834000       0.72304000
   115  C          0.96005000       0.22313000       0.69443000
   116  C         -0.01325000       0.17393000       0.76673000
