data_QODNOP
_symmetry_space_group_name_H-M    'P1'
_symmetry_Int_Tables_number       1
loop_
_symmetry_equiv_pos_site_id
_symmetry_equiv_pos_as_xyz
1 x,y,z
_cell_length_a                   4.13452
_cell_length_b                   6.13113
_cell_length_c                   13.85457
_cell_angle_alpha                87.5933
_cell_angle_beta                 87.1414
_cell_angle_gamma                87.8684
loop_
_atom_site_label
_atom_site_type_symbol
_atom_site_fract_x
_atom_site_fract_y
_atom_site_fract_z
     1  Br         0.71587600       0.11972400       0.71703200
     2  Br         0.28412400       0.88027600       0.28296800
     3  F          0.16214000       0.37992000       0.57558110
     4  F          0.83786000       0.62008000       0.42441890
     5  F          0.38784000       0.28232000       0.39774110
     6  F          0.61216000       0.71768000       0.60225890
     7  C          0.88246000       0.05084000       0.59400170
     8  C          0.11754000       0.94916000       0.40599830
     9  C          0.19386000       0.14234000       0.44745180
    10  C          0.80614000       0.85766000       0.55254820
    11  C          0.07916000       0.19234000       0.53911180
    12  C          0.92084000       0.80766000       0.46088820
    13  O          0.36425000       0.20923000       0.89974140
    14  O          0.63575000       0.79077000       0.10025860
    15  N          0.12245000       0.54533000       0.90528150
    16  N          0.87755000       0.45467000       0.09471850
    17  C          0.19476000       0.34544000       0.94277180
    18  C          0.80524000       0.65456000       0.05722820
    19  C          0.94383000       0.71494000       0.95823190
    20  C          0.05617000       0.28506000       0.04176810
    21  H          0.76520000       0.76980000       0.91900000
    22  H          0.23480000       0.23020000       0.08100000
    23  H          0.08870000       0.83610000       0.96400000
    24  H          0.91130000       0.16390000       0.03600000
    25  C          0.23918000       0.60655000       0.80682000
    26  C          0.76082000       0.39345000       0.19318000
    27  H          0.43050000       0.51750000       0.78950000
    28  H          0.56950000       0.48250000       0.21050000
    29  H          0.29290000       0.75930000       0.80330000
    30  H          0.70710000       0.24070000       0.19670000
    31  H          0.07130000       0.58310000       0.76220000
    32  H          0.92870000       0.41690000       0.23780000
