data_QODNUV
_symmetry_space_group_name_H-M    'P1'
_symmetry_Int_Tables_number       1
loop_
_symmetry_equiv_pos_site_id
_symmetry_equiv_pos_as_xyz
1 x,y,z
_cell_length_a                   7.44034
_cell_length_b                   8.14334
_cell_length_c                   13.66897
_cell_angle_alpha                103.2263
_cell_angle_beta                 98.8443
_cell_angle_gamma                95.9983
loop_
_atom_site_label
_atom_site_type_symbol
_atom_site_fract_x
_atom_site_fract_y
_atom_site_fract_z
     1  I          0.63146300       0.24301200       0.82372200
     2  I          0.36853700       0.75698800       0.17627800
     3  F          0.05093000       0.34232000       0.81150140
     4  F          0.94907000       0.65768000       0.18849860
     5  F          0.67133000       0.45103000       0.05826160
     6  F          0.32867000       0.54897000       0.94173840
     7  C          0.85234000       0.39223000       0.93082000
     8  C          0.14766000       0.60777000       0.06918000
     9  C          0.02184000       0.41964000       0.90532000
    10  C         -0.02184000       0.58036000       0.09468000
    11  C          0.83214000       0.47474000       0.02733000
    12  C          0.16786000       0.52526000       0.97267000
    13  I          0.08199300       0.25084200       0.25051200
    14  I          0.91800700       0.74915800       0.74948800
    15  F          0.72407000       0.01373000       0.10752170
    16  F          0.27593000      -0.01373000       0.89247830
    17  F          0.66447000       0.81487000       0.91827840
    18  F          0.33553000       0.18513000       0.08172160
    19  C          0.03184000       0.10463000       0.09992000
    20  C          0.96816000       0.89537000       0.90008000
    21  C          0.86246000       0.00764000       0.05532000
    22  C          0.13754000      -0.00764000       0.94468000
    23  C          0.83236000       0.90596000       0.95748000
    24  C          0.16764000       0.09404000       0.04252000
    25  O          0.36303000       0.07762000       0.63815190
    26  O          0.63697000       0.92238000       0.36184810
    27  O          0.18734000       0.40992000       0.46362170
    28  O          0.81266000       0.59008000       0.53637830
    29  N          0.23553000       0.86833000       0.49835190
    30  N          0.76447000       0.13167000       0.50164810
    31  N          0.31813000       0.61943000       0.60280190
    32  N          0.68187000       0.38057000       0.39719810
    33  C          0.32474000       0.92593000       0.59382000
    34  C          0.67526000       0.07407000       0.40618000
    35  C          0.38254000       0.79773000       0.65222000
    36  C          0.61746000       0.20227000       0.34778000
    37  H          0.51720000       0.81340000       0.66760000
    38  H          0.48280000       0.18660000       0.33240000
    39  H          0.33980000       0.82430000       0.71760000
    40  H          0.66020000       0.17570000       0.28240000
    41  C          0.23434000       0.56234000       0.50602000
    42  C          0.76566000       0.43766000       0.49398000
    43  C          0.19595000       0.68984000       0.44442000
    44  C          0.80405000       0.31016000       0.55558000
    45  H          0.26710000       0.67190000       0.38920000
    46  H          0.73290000       0.32810000       0.61080000
    47  H          0.06550000       0.66510000       0.41240000
    48  H          0.93450000       0.33490000       0.58760000
    49  C          0.18495000      -0.01356000       0.43633000
    50  C          0.81505000       0.01356000       0.56367000
    51  H          0.21000000       0.10210000       0.47890000
    52  H          0.79000000       0.89790000       0.52110000
    53  H          0.05490000       0.95860000       0.40680000
    54  H          0.94510000       0.04140000       0.59320000
    55  H          0.25600000       0.97670000       0.38190000
    56  H          0.74400000       0.02330000       0.61810000
    57  C          0.36295000       0.50114000       0.66573000
    58  C          0.63705000       0.49886000       0.33427000
    59  H          0.29690000       0.51900000       0.72220000
    60  H          0.70310000       0.48100000       0.27780000
    61  H          0.49410000       0.52080000       0.69200000
    62  H          0.50590000       0.47920000       0.30800000
    63  H          0.32750000       0.38480000       0.62450000
    64  H          0.67250000       0.61520000       0.37550000
