data_QOLMIP
_symmetry_space_group_name_H-M    'P1'
_symmetry_Int_Tables_number       1
loop_
_symmetry_equiv_pos_site_id
_symmetry_equiv_pos_as_xyz
1 x,y,z
_cell_length_a                   7.80102
_cell_length_b                   15.81163
_cell_length_c                   15.33123
_cell_angle_alpha                90.0
_cell_angle_beta                 90.0
_cell_angle_gamma                90.0
loop_
_atom_site_label
_atom_site_type_symbol
_atom_site_fract_x
_atom_site_fract_y
_atom_site_fract_z
     1  Cl         0.59368900       0.72333300       0.33997400
     2  Cl         0.90631100       0.77666700       0.83997400
     3  Cl         0.09368900       0.77666700       0.66002600
     4  Cl         0.40631100       0.72333300       0.16002600
     5  Cl         0.40631100       0.27666700       0.66002600
     6  Cl         0.09368900       0.22333300       0.16002600
     7  Cl         0.90631100       0.22333300       0.33997400
     8  Cl         0.59368900       0.27666700       0.83997400
     9  Cl         0.67816100       0.55157400       0.43043400
    10  Cl         0.82183900       0.94842600       0.93043400
    11  Cl         0.17816100       0.94842600       0.56956600
    12  Cl         0.32183900       0.55157400       0.06956600
    13  Cl         0.32183900       0.44842600       0.56956600
    14  Cl         0.17816100       0.05157400       0.06956600
    15  Cl         0.82183900       0.05157400       0.43043400
    16  Cl         0.67816100       0.44842600       0.93043400
    17  O          0.58903000       0.40429110       0.33185140
    18  O          0.91097000       0.09570890       0.83185140
    19  O          0.08903000       0.09570890       0.66814860
    20  O          0.41097000       0.40429110       0.16814860
    21  O          0.41097000       0.59570890       0.66814860
    22  O          0.08903000       0.90429110       0.16814860
    23  O          0.91097000       0.90429110       0.33185140
    24  O          0.58903000       0.59570890       0.83185140
    25  H          0.53160000       0.36460000       0.31370000
    26  H          0.96840000       0.13540000       0.81370000
    27  H          0.03160000       0.13540000       0.68630000
    28  H          0.46840000       0.36460000       0.18630000
    29  H          0.46840000       0.63540000       0.68630000
    30  H          0.03160000       0.86460000       0.18630000
    31  H          0.96840000       0.86460000       0.31370000
    32  H          0.53160000       0.63540000       0.81370000
    33  C          0.54053000       0.62952130       0.29016150
    34  C          0.95947000       0.87047870       0.79016150
    35  C          0.04053000       0.87047870       0.70983850
    36  C          0.45947000       0.62952130       0.20983850
    37  C          0.45947000       0.37047870       0.70983850
    38  C          0.04053000       0.12952130       0.20983850
    39  C          0.95947000       0.12952130       0.29016150
    40  C          0.54053000       0.37047870       0.79016150
    41  C          0.58053000       0.55269140       0.32980140
    42  C          0.91947000       0.94730860       0.82980140
    43  C          0.08053000       0.94730860       0.67019860
    44  C          0.41947000       0.55269140       0.17019860
    45  C          0.41947000       0.44730860       0.67019860
    46  C          0.08053000       0.05269140       0.17019860
    47  C          0.91947000       0.05269140       0.32980140
    48  C          0.58053000       0.44730860       0.82980140
    49  C          0.54163000       0.47586130       0.29058150
    50  C          0.95837000       0.02413870       0.79058150
    51  C          0.04163000       0.02413870       0.70941850
    52  C          0.45837000       0.47586130       0.20941850
    53  C          0.45837000       0.52413870       0.70941850
    54  C          0.04163000       0.97586130       0.20941850
    55  C          0.95837000       0.97586130       0.29058150
    56  C          0.54163000       0.52413870       0.79058150
    57  N          0.93223000       0.24484130       0.66792130
    58  N          0.56777000       0.25515870       0.16792130
    59  N          0.43223000       0.25515870       0.33207870
    60  N          0.06777000       0.24484130       0.83207870
    61  N          0.06777000       0.75515870       0.33207870
    62  N          0.43223000       0.74484130       0.83207870
    63  N          0.56777000       0.74484130       0.66792130
    64  N          0.93223000       0.75515870       0.16792130
    65  C          0.84004000       0.39384180       0.58597180
    66  C          0.65996000       0.10615820       0.08597180
    67  C          0.34004000       0.10615820       0.41402820
    68  C          0.15996000       0.39384180       0.91402820
    69  C          0.15996000       0.60615820       0.41402820
    70  C          0.34004000       0.89384180       0.91402820
    71  C          0.65996000       0.89384180       0.58597180
    72  C          0.84004000       0.60615820       0.08597180
    73  H          0.80870000       0.44360000       0.55780000
    74  H          0.69130000       0.05640000       0.05780000
    75  H          0.30870000       0.05640000       0.44220000
    76  H          0.19130000       0.44360000       0.94220000
    77  H          0.19130000       0.55640000       0.44220000
    78  H          0.30870000       0.94360000       0.94220000
    79  H          0.69130000       0.94360000       0.55780000
    80  H          0.80870000       0.55640000       0.05780000
    81  C          0.80764000       0.31852190       0.54719180
    82  C          0.69236000       0.18147810       0.04719180
    83  C          0.30764000       0.18147810       0.45280820
    84  C          0.19236000       0.31852190       0.95280820
    85  C          0.19236000       0.68147810       0.45280820
    86  C          0.30764000       0.81852190       0.95280820
    87  C          0.69236000       0.81852190       0.54719180
    88  C          0.80764000       0.68147810       0.04719180
    89  H          0.75260000       0.31600000       0.49340000
    90  H          0.74740000       0.18400000      -0.00660000
    91  H          0.25260000       0.18400000       0.50660000
    92  H          0.24740000       0.31600000       0.00660000
    93  H          0.24740000       0.68400000       0.50660000
    94  H          0.25260000       0.81600000       0.00660000
    95  H          0.74740000       0.81600000       0.49340000
    96  H          0.75260000       0.68400000      -0.00660000
    97  C          0.91993000       0.39828140       0.66777150
    98  C          0.58007000       0.10171860       0.16777150
    99  C          0.41993000       0.10171860       0.33222850
   100  C          0.08007000       0.39828140       0.83222850
   101  C          0.08007000       0.60171860       0.33222850
   102  C          0.41993000       0.89828140       0.83222850
   103  C          0.58007000       0.89828140       0.66777150
   104  C          0.91993000       0.60171860       0.16777150
   105  C          0.85894000       0.24486170       0.59013180
   106  C          0.64106000       0.25513830       0.09013180
   107  C          0.35894000       0.25513830       0.40986820
   108  C          0.14106000       0.24486170       0.90986820
   109  C          0.14106000       0.75513830       0.40986820
   110  C          0.35894000       0.74486170       0.90986820
   111  C          0.64106000       0.74486170       0.59013180
   112  C          0.85894000       0.75513830       0.09013180
   113  H          0.84060000       0.19320000       0.56260000
   114  H          0.65940000       0.30680000       0.06260000
   115  H          0.34060000       0.30680000       0.43740000
   116  H          0.15940000       0.19320000       0.93740000
   117  H          0.15940000       0.80680000       0.43740000
   118  H          0.34060000       0.69320000       0.93740000
   119  H          0.65940000       0.69320000       0.56260000
   120  H          0.84060000       0.80680000       0.06260000
   121  C          0.96133000       0.32017120       0.70746150
   122  C          0.53867000       0.17982880       0.20746150
   123  C          0.46133000       0.17982880       0.29253850
   124  C          0.03867000       0.32017120       0.79253850
   125  C          0.03867000       0.67982880       0.29253850
   126  C          0.46133000       0.82017120       0.79253850
   127  C          0.53867000       0.82017120       0.70746150
   128  C          0.96133000       0.67982880       0.20746150
   129  C          0.91675000       0.55875170       0.66402000
   130  C          0.58325000       0.94124830       0.16402000
   131  C          0.41675000       0.94124830       0.33598000
   132  C          0.08325000       0.55875170       0.83598000
   133  C          0.08325000       0.44124830       0.33598000
   134  C          0.41675000       0.05875170       0.83598000
   135  C          0.58325000       0.05875170       0.66402000
   136  C          0.91675000       0.44124830       0.16402000
   137  H          0.91070000       0.60410000       0.70550000
   138  H          0.58930000       0.89590000       0.20550000
   139  H          0.41070000       0.89590000       0.29450000
   140  H          0.08930000       0.60410000       0.79450000
   141  H          0.08930000       0.39590000       0.29450000
   142  H          0.41070000       0.10410000       0.79450000
   143  H          0.58930000       0.10410000       0.70550000
   144  H          0.91070000       0.39590000       0.20550000
   145  H          0.80790000       0.55280000       0.63530000
   146  H          0.69210000       0.94720000       0.13530000
   147  H          0.30790000       0.94720000       0.36470000
   148  H          0.19210000       0.55280000       0.86470000
   149  H          0.19210000       0.44720000       0.36470000
   150  H          0.30790000       0.05280000       0.86470000
   151  H          0.69210000       0.05280000       0.63530000
   152  H          0.80790000       0.44720000       0.13530000
   153  H          0.00360000       0.57100000       0.62150000
   154  H          0.49640000       0.92900000       0.12150000
   155  H          0.50360000       0.92900000       0.37850000
   156  H         -0.00360000       0.57100000       0.87850000
   157  H         -0.00360000       0.42900000       0.37850000
   158  H          0.50360000       0.07100000       0.87850000
   159  H          0.49640000       0.07100000       0.62150000
   160  H          0.00360000       0.42900000       0.12150000
   161  C          0.96053000       0.47742130       0.71057170
   162  C          0.53947000       0.02257870       0.21057170
   163  C          0.46053000       0.02257870       0.28942830
   164  C          0.03947000       0.47742130       0.78942830
   165  C          0.03947000       0.52257870       0.28942830
   166  C          0.46053000       0.97742130       0.78942830
   167  C          0.53947000       0.97742130       0.71057170
   168  C          0.96053000       0.52257870       0.21057170
