data_QOLNIS
_symmetry_space_group_name_H-M    'P1'
_symmetry_Int_Tables_number       1
loop_
_symmetry_equiv_pos_site_id
_symmetry_equiv_pos_as_xyz
1 x,y,z
_cell_length_a                   11.10811
_cell_length_b                   8.67438
_cell_length_c                   13.43159
_cell_angle_alpha                90.0
_cell_angle_beta                 90.9673
_cell_angle_gamma                90.0
loop_
_atom_site_label
_atom_site_type_symbol
_atom_site_fract_x
_atom_site_fract_y
_atom_site_fract_z
     1  F          0.94422000       0.01915000       0.05172000
     2  F          0.05578000       0.51915000       0.94828000
     3  O          0.56542000       0.93993000       0.39485170
     4  O          0.43458000       0.43993000       0.60514830
     5  O          0.35842000       0.66913000       0.49393170
     6  O          0.64158000       0.16913000       0.50606830
     7  H          0.38240000       0.59640000       0.53230000
     8  H          0.61760000       0.09640000       0.46770000
     9  O          0.50472000       0.57933000       0.39695170
    10  O          0.49528000       0.07933000       0.60304830
    11  N          0.46702000       0.82464000       0.26779190
    12  N          0.53298000       0.32464000       0.73220810
    13  H          0.47530000       0.78250000       0.21291900
    14  H          0.52470000       0.28250000       0.78708100
    15  C          0.56153000       0.90214000       0.30602000
    16  C          0.43847000       0.40214000       0.69398000
    17  C          0.66183000       0.93634000       0.23693000
    18  C          0.33817000       0.43634000       0.76307000
    19  C          0.77953000       0.93855000       0.27493000
    20  C          0.22047000       0.43855000       0.72507000
    21  H          0.79411800       0.92194200       0.34394100
    22  H          0.20588200       0.42194200       0.65605900
    23  C          0.87483000       0.96486000       0.21234000
    24  C          0.12517000       0.46486000       0.78766000
    25  H          0.95527400       0.96488800       0.23736700
    26  H          0.04472600       0.46488800       0.76263300
    27  C          0.85074000      -0.00934000       0.11333000
    28  C          0.14926000       0.49066000       0.88667000
    29  C          0.73674000      -0.00964000       0.07233000
    30  C          0.26326000       0.49036000       0.92767000
    31  H          0.72340400       0.00961100       0.00333700
    32  H          0.27659600       0.50961100      -0.00333700
    33  C          0.64173000       0.96085000       0.13503000
    34  C          0.35827000       0.46085000       0.86497000
    35  H          0.56187100       0.95721800       0.10849100
    36  H          0.43812900       0.45721800       0.89150900
    37  C          0.41993000       0.66584000       0.41052000
    38  C          0.58007000       0.16584000       0.58948000
    39  C          0.37013000       0.77464000       0.33172000
    40  C          0.62987000       0.27464000       0.66828000
    41  H          0.33499300       0.86681900       0.36516500
    42  H          0.66500700       0.36681900       0.63483500
    43  C          0.27173000       0.69725000       0.26712000
    44  C          0.72827000       0.19725000       0.73288000
    45  H          0.30823700       0.60606200       0.23339300
    46  H          0.69176300       0.10606200       0.76660700
    47  C          0.22413000       0.80676000       0.18673000
    48  C          0.77587000       0.30676000       0.81327000
    49  H          0.15896500       0.75632800       0.14885100
    50  H          0.84103500       0.25632800       0.85114900
    51  H          0.28933200       0.83366500       0.14169500
    52  H          0.71066800       0.33366500       0.85830500
    53  H          0.19331300       0.90056500       0.21797800
    54  H          0.80668700       0.40056500       0.78202200
    55  C          0.16793000       0.63985000       0.33083000
    56  C          0.83207000       0.13985000       0.66917000
    57  H          0.13550400       0.72588300       0.36927800
    58  H          0.86449600       0.22588300       0.63072200
    59  H          0.19739500       0.55956500       0.37645800
    60  H          0.80260500       0.05956500       0.62354200
    61  H          0.10427500       0.59710100       0.28752600
    62  H          0.89572500       0.09710100       0.71247400
    63  F          0.06523000      -0.01424000       0.46812000
    64  F          0.93477000       0.48576000       0.53188000
    65  F          0.96368000       0.18584000       0.43382190
    66  F          0.03632000       0.68584000       0.56617810
    67  F          0.09042000       0.18814000       0.55537160
    68  F          0.90958000       0.68814000       0.44462840
    69  O          0.43852000       0.27073000       0.10372170
    70  O          0.56148000       0.77073000       0.89627830
    71  O          0.64282000       0.53943000      -0.00242160
    72  O          0.35718000       0.03943000       0.00242160
    73  H          0.61030000       0.60240000       0.95770000
    74  H          0.38970000       0.10240000       0.04230000
    75  O          0.50282000       0.62993000       0.09945160
    76  O          0.49718000       0.12993000       0.90054840
    77  N          0.54232000       0.38524000       0.22682000
    78  N          0.45768000       0.88524000       0.77318000
    79  H          0.53630000       0.43840000       0.28020000
    80  H          0.46370000       0.93840000       0.71980000
    81  C          0.44653000       0.30904000       0.19302000
    82  C          0.55347000       0.80904000       0.80698000
    83  C          0.35013000       0.27034000       0.26502000
    84  C          0.64987000       0.77034000       0.73498000
    85  C          0.23333000       0.25455000       0.22893000
    86  C          0.76667000       0.75455000       0.77107000
    87  H          0.21622800       0.26917000       0.15996700
    88  H          0.78377200       0.76917000       0.84003300
    89  C          0.14123000       0.21735000       0.29303000
    90  C          0.85877000       0.71735000       0.70697000
    91  H          0.06065000       0.20911300       0.26854700
    92  H          0.93935000       0.70911300       0.73145300
    93  C          0.16743000       0.19225000       0.39343000
    94  C          0.83257000       0.69225000       0.60657000
    95  C          0.28443000       0.20675000       0.42962000
    96  C          0.71557000       0.70675000       0.57038000
    97  H          0.30209700       0.18845800       0.49807000
    98  H          0.69790300       0.68845800       0.50193000
    99  C          0.37553000       0.24784000       0.36573000
   100  C          0.62447000       0.74784000       0.63427000
   101  H          0.45538800       0.26069700       0.39062700
   102  H          0.54461200       0.76069700       0.60937300
   103  C          0.58543000       0.54414000       0.08272000
   104  C          0.41457000       0.04414000       0.91728000
   105  C          0.63753000       0.42944000       0.15872000
   106  C          0.36247000       0.92944000       0.84128000
   107  H          0.66561200       0.33548400       0.12268000
   108  H          0.33438800       0.83548400       0.87732000
   109  C          0.74503000       0.49975000       0.21803000
   110  C          0.25497000      -0.00025000       0.78197000
   111  H          0.71634500       0.59418600       0.25310100
   112  H          0.28365500       0.09418600       0.74689900
   113  C          0.79084000       0.38495000       0.29593000
   114  C          0.20916000       0.88495000       0.70407000
   115  H          0.81428300       0.28897000       0.26298800
   116  H          0.18571700       0.78897000       0.73701200
   117  H          0.72682700       0.36343900       0.34333600
   118  H          0.27317300       0.86343900       0.65666400
   119  H          0.86058800       0.42862700       0.33142400
   120  H          0.13941200       0.92862700       0.66857600
   121  C          0.84593000       0.54547000       0.14963000
   122  C          0.15407000       0.04547000       0.85037000
   123  H          0.91173000       0.59162000       0.18894500
   124  H          0.08827000       0.09162000       0.81105500
   125  H          0.81585500       0.62041700       0.10062900
   126  H          0.18414500       0.12041700       0.89937100
   127  H          0.87558600       0.45384800       0.11505000
   128  H          0.12441400       0.95384800       0.88495000
   129  C          0.06353000       0.14285000       0.46323000
   130  C          0.93647000       0.64285000       0.53677000
