data_QOLVUI
_symmetry_space_group_name_H-M    'P1'
_symmetry_Int_Tables_number       1
loop_
_symmetry_equiv_pos_site_id
_symmetry_equiv_pos_as_xyz
1 x,y,z
_cell_length_a                   5.516312
_cell_length_b                   11.7152
_cell_length_c                   13.5513
_cell_angle_alpha                79.7613
_cell_angle_beta                 80.8873
_cell_angle_gamma                85.5564
loop_
_atom_site_label
_atom_site_type_symbol
_atom_site_fract_x
_atom_site_fract_y
_atom_site_fract_z
     1  Br         0.27291800       0.35475400       0.02778300
     2  Br         0.72708200       0.64524600       0.97221700
     3  Br         0.58455800       0.28518400       0.91571700
     4  Br         0.41544200       0.71481600       0.08428300
     5  Br         0.66009200       0.46801400       0.44518300
     6  Br         0.33990800       0.53198600       0.55481700
     7  Br         0.33517700       0.05737400       0.52984700
     8  Br         0.66482300       0.94262600       0.47015300
     9  C          0.83363000       0.26974000       0.24163000
    10  C          0.16637000       0.73026000       0.75837000
    11  C          0.82433000       0.38284000       0.18703000
    12  C          0.17567000       0.61716000       0.81297000
    13  H          0.72023000       0.40234000       0.13633000
    14  H          0.27977000       0.59766000       0.86367000
    15  C          0.96633000       0.46634000       0.20663000
    16  C          0.03367000       0.53366000       0.79337000
    17  H          0.95833000       0.54294000       0.16923000
    18  H          0.04167000       0.45706000       0.83077000
    19  C          0.11998000       0.43964000       0.27993000
    20  C          0.88002000       0.56036000       0.72007000
    21  H          0.21778000       0.49734000       0.29253000
    22  H          0.78222000       0.50266000       0.70747000
    23  C          0.12937000       0.32804000       0.33463000
    24  C          0.87063000       0.67196000       0.66537000
    25  H          0.23287000       0.30914000       0.38563000
    26  H          0.76713000       0.69086000       0.61437000
    27  C         -0.01227000       0.24364000       0.31523000
    28  C          0.01227000       0.75636000       0.68477000
    29  H         -0.00357000       0.16724000       0.35283000
    30  H          0.00357000       0.83276000       0.64717000
    31  C          0.68003000       0.17874000       0.21914000
    32  C          0.31997000       0.82126000       0.78086000
    33  H          0.70485900       0.17841700       0.14604000
    34  H          0.29514100       0.82158300       0.85396000
    35  H          0.50601000       0.19661400       0.24232000
    36  H          0.49399000       0.80338600       0.75768000
    37  H          0.72956400       0.10225000       0.25461700
    38  H          0.27043600       0.89775000       0.74538300
    39  C          0.86827000       0.07664000       0.80057000
    40  C          0.13173000       0.92336000       0.19943000
    41  C          0.76088000       0.09384000       0.71287000
    42  C          0.23912000       0.90616000       0.28713000
    43  H          0.63468000       0.04544000       0.70757000
    44  H          0.36532000       0.95456000       0.29243000
    45  C          0.83618000       0.18104000       0.63267000
    46  C          0.16382000       0.81896000       0.36733000
    47  H          0.76158000       0.19184000       0.57297000
    48  H          0.23842000       0.80816000       0.42703000
    49  C          0.01938000       0.25214000       0.63937000
    50  C         -0.01938000       0.74786000       0.36063000
    51  H          0.06948000       0.31234000       0.58467000
    52  H          0.93052000       0.68766000       0.41533000
    53  C          0.12858000       0.23554000       0.72537000
    54  C          0.87142000       0.76446000       0.27463000
    55  H          0.25648000       0.28344000       0.72967000
    56  H          0.74352000       0.71656000       0.27033000
    57  C          0.05327000       0.14924000       0.80587000
    58  C          0.94673000       0.85076000       0.19413000
    59  H          0.12847000       0.13924000       0.86537000
    60  H          0.87153000       0.86076000       0.13463000
    61  C          0.78049000       0.98316000       0.88776000
    62  C          0.21951000       0.01684000       0.11224000
    63  H          0.83475000       0.90676000       0.87009000
    64  H          0.16525000       0.09324000       0.12991000
    65  H          0.60049000       0.98898300       0.90198400
    66  H          0.39951000       0.01101700       0.09801600
    67  H          0.84884700      -0.00691700       0.94793000
    68  H          0.15115300       0.00691700       0.05207000
