data_QOLWUM
_symmetry_space_group_name_H-M    'P1'
_symmetry_Int_Tables_number       1
loop_
_symmetry_equiv_pos_site_id
_symmetry_equiv_pos_as_xyz
1 x,y,z
_cell_length_a                   16.562114
_cell_length_b                   16.562114
_cell_length_c                   5.40495
_cell_angle_alpha                90.0
_cell_angle_beta                 90.0
_cell_angle_gamma                120.0
loop_
_atom_site_label
_atom_site_type_symbol
_atom_site_fract_x
_atom_site_fract_y
_atom_site_fract_z
     1  O          0.76412400       0.51941400       0.33500120
     2  O          0.48058600       0.24471000       0.33500120
     3  O          0.75529000       0.23587600       0.33500120
     4  O          0.43079067       0.85274733       0.66833453
     5  O          0.14725267       0.57804333       0.66833453
     6  O          0.42195667       0.56920933       0.66833453
     7  O          0.09745733       0.18608067       0.00166787
     8  O          0.81391933       0.91137667       0.00166787
     9  O          0.08862333       0.90254267       0.00166787
    10  O          0.23587600       0.48058600       0.66499880
    11  O          0.51941400       0.75529000       0.66499880
    12  O          0.24471000       0.76412400       0.66499880
    13  O          0.56920933       0.14725267       0.33166547
    14  O          0.85274733       0.42195667       0.33166547
    15  O          0.57804333       0.43079067       0.33166547
    16  O          0.90254267       0.81391933      -0.00166787
    17  O          0.18608067       0.08862333      -0.00166787
    18  O          0.91137667       0.09745733      -0.00166787
    19  H          0.79071300       0.48721300       0.34940000
    20  H          0.51278700       0.30350000       0.34940000
    21  H          0.69650000       0.20928700       0.34940000
    22  H          0.45737967       0.82054633       0.68273333
    23  H          0.17945367       0.63683333       0.68273333
    24  H          0.36316667       0.54262033       0.68273333
    25  H          0.12404633       0.15387967       0.01606667
    26  H          0.84612033       0.97016667       0.01606667
    27  H          0.02983333       0.87595367       0.01606667
    28  H          0.20928700       0.51278700       0.65060000
    29  H          0.48721300       0.69650000       0.65060000
    30  H          0.30350000       0.79071300       0.65060000
    31  H          0.54262033       0.17945367       0.31726667
    32  H          0.82054633       0.36316667       0.31726667
    33  H          0.63683333       0.45737967       0.31726667
    34  H          0.87595367       0.84612033      -0.01606667
    35  H          0.15387967       0.02983333      -0.01606667
    36  H          0.97016667       0.12404633      -0.01606667
    37  C          0.80032500       0.59235500       0.50223140
    38  C          0.40764500       0.20797000       0.50223140
    39  C          0.79203000       0.19967500       0.50223140
    40  C          0.46699167       0.92568833       0.83556473
    41  C          0.07431167       0.54130333       0.83556473
    42  C          0.45869667       0.53300833       0.83556473
    43  C          0.13365833       0.25902167       0.16889807
    44  C          0.74097833       0.87463667       0.16889807
    45  C          0.12536333       0.86634167       0.16889807
    46  C          0.19967500       0.40764500       0.49776860
    47  C          0.59235500       0.79203000       0.49776860
    48  C          0.20797000       0.80032500       0.49776860
    49  C          0.53300833       0.07431167       0.16443527
    50  C          0.92568833       0.45869667       0.16443527
    51  C          0.54130333       0.46699167       0.16443527
    52  C          0.86634167       0.74097833       0.83110193
    53  C          0.25902167       0.12536333       0.83110193
    54  C          0.87463667       0.13365833       0.83110193
    55  C          0.77738600       0.66183600       0.46844150
    56  C          0.33816400       0.11555000       0.46844150
    57  C          0.88445000       0.22261400       0.46844150
    58  C          0.44405267      -0.00483067       0.80177483
    59  C          0.00483067       0.44888333       0.80177483
    60  C          0.55111667       0.55594733       0.80177483
    61  C          0.11071933       0.32850267       0.13510817
    62  C          0.67149733       0.78221667       0.13510817
    63  C          0.21778333       0.88928067       0.13510817
    64  C          0.22261400       0.33816400       0.53155850
    65  C          0.66183600       0.88445000       0.53155850
    66  C          0.11555000       0.77738600       0.53155850
    67  C          0.55594733       0.00483067       0.19822517
    68  C         -0.00483067       0.55111667       0.19822517
    69  C          0.44888333       0.44405267       0.19822517
    70  C          0.88928067       0.67149733       0.86489183
    71  C          0.32850267       0.21778333       0.86489183
    72  C          0.78221667       0.11071933       0.86489183
    73  H          0.73681100       0.65701100       0.32330000
    74  H          0.34298900       0.07980000       0.32330000
    75  H          0.92020000       0.26318900       0.32330000
    76  H          0.40347767      -0.00965567       0.65663333
    77  H          0.00965567       0.41313333       0.65663333
    78  H          0.58686667       0.59652233       0.65663333
    79  H          0.07014433       0.32367767      -0.01003333
    80  H          0.67632233       0.74646667      -0.01003333
    81  H          0.25353333       0.92985567      -0.01003333
    82  H          0.26318900       0.34298900       0.67670000
    83  H          0.65701100       0.92020000       0.67670000
    84  H          0.07980000       0.73681100       0.67670000
    85  H          0.59652233       0.00965567       0.34336667
    86  H         -0.00965567       0.58686667       0.34336667
    87  H          0.41313333       0.40347767       0.34336667
    88  H          0.92985567       0.67632233       0.01003333
    89  H          0.32367767       0.25353333       0.01003333
    90  H          0.74646667       0.07014433       0.01003333
    91  C          0.81025600       0.73647600       0.63295150
    92  C          0.26352400       0.07378000       0.63295150
    93  C          0.92622000       0.18974400       0.63295150
    94  C          0.47692267       0.06980933       0.96628483
    95  C          0.93019067       0.40711333       0.96628483
    96  C          0.59288667       0.52307733       0.96628483
    97  C          0.14358933       0.40314267       0.29961817
    98  C          0.59685733       0.74044667       0.29961817
    99  C          0.25955333       0.85641067       0.29961817
   100  C          0.18974400       0.26352400       0.36704850
   101  C          0.73647600       0.92622000       0.36704850
   102  C          0.07378000       0.81025600       0.36704850
   103  C          0.52307733       0.93019067       0.03371517
   104  C          0.06980933       0.59288667       0.03371517
   105  C          0.40711333       0.47692267       0.03371517
   106  C          0.85641067       0.59685733       0.70038183
   107  C          0.40314267       0.25955333       0.70038183
   108  C          0.74044667       0.14358933       0.70038183
   109  H          0.79551100       0.78621100       0.60730000
   110  H          0.21378900       0.00930000       0.60730000
   111  H         -0.00930000       0.20448900       0.60730000
   112  H          0.46217767       0.11954433       0.94063333
   113  H          0.88045567       0.34263333       0.94063333
   114  H          0.65736667       0.53782233       0.94063333
   115  H          0.12884433       0.45287767       0.27396667
   116  H          0.54712233       0.67596667       0.27396667
   117  H          0.32403333       0.87115567       0.27396667
   118  H          0.20448900       0.21378900       0.39270000
   119  H          0.78621100      -0.00930000       0.39270000
   120  H          0.00930000       0.79551100       0.39270000
   121  H          0.53782233       0.88045567       0.05936667
   122  H          0.11954433       0.65736667       0.05936667
   123  H          0.34263333       0.46217767       0.05936667
   124  H          0.87115567       0.54712233       0.72603333
   125  H          0.45287767       0.32403333       0.72603333
   126  H          0.67596667       0.12884433       0.72603333
   127  C          0.66670000       0.33330000       0.83330000
   128  C          0.33336667       0.66663333       0.16663333
   129  C          0.00003333      -0.00003333       0.49996667
