data_QOMVAS
_symmetry_space_group_name_H-M    'P1'
_symmetry_Int_Tables_number       1
loop_
_symmetry_equiv_pos_site_id
_symmetry_equiv_pos_as_xyz
1 x,y,z
_cell_length_a                   8.12172
_cell_length_b                   9.68232
_cell_length_c                   13.87063
_cell_angle_alpha                89.4832
_cell_angle_beta                 84.1512
_cell_angle_gamma                85.3262
loop_
_atom_site_label
_atom_site_type_symbol
_atom_site_fract_x
_atom_site_fract_y
_atom_site_fract_z
     1  O          0.41235110       0.12628100      -0.00038600
     2  O          0.58764890       0.87371900       0.00038600
     3  O          0.52489100       0.37728100       0.04775600
     4  O          0.47510900       0.62271900       0.95224400
     5  O          0.22800100       0.37095800      -0.00628600
     6  O          0.77199900       0.62904200       0.00628600
     7  C          0.17278150       0.27185120       0.06506800
     8  C          0.82721850       0.72814880       0.93493200
     9  C          0.30299140       0.15499120       0.08635800
    10  C          0.69700860       0.84500880       0.91364200
    11  C          0.40243140       0.37417120       0.12992800
    12  C          0.59756860       0.62582880       0.87007200
    13  C          0.64307150       0.59860130       0.29158900
    14  C          0.35692850       0.40139870       0.70841100
    15  C          0.30516150       0.21416120       0.26747800
    16  C          0.69483850       0.78583880       0.73252200
    17  H          0.34505200       0.28607100       0.30760200
    18  H          0.65494800       0.71392900       0.69239800
    19  H          0.18631100       0.24017700       0.26114700
    20  H          0.81368900       0.75982300       0.73885300
    21  C          0.57642150       0.14667120       0.16611900
    22  C          0.42357850       0.85332880       0.83388100
    23  H          0.57121600       0.04595600       0.16465000
    24  H          0.42878400       0.95404400       0.83535000
    25  H          0.62356400       0.17258000       0.22501900
    26  H          0.37643600       0.82742000       0.77498100
    27  H          0.64660000       0.17578900       0.10907400
    28  H          0.35340000       0.82421100       0.89092600
    29  C          0.61449160       0.47202130       0.23438900
    30  C          0.38550840       0.52797870       0.76561100
    31  H          0.62684600       0.38836700       0.27541200
    32  H          0.37315400       0.61163300       0.72458800
    33  H          0.69871000       0.46123800       0.17755100
    34  H          0.30129000       0.53876200       0.82244900
    35  C          0.25531160       0.91963880       0.18248900
    36  C          0.74468840       0.08036120       0.81751100
    37  H          0.19940400       0.83462400       0.17223700
    38  H          0.80059600       0.16537600       0.82776300
    39  H          0.37611900       0.89662600       0.16720200
    40  H          0.62388100       0.10337400       0.83279800
    41  C          0.40091140       0.21820120       0.16544800
    42  C          0.59908860       0.78179880       0.83455200
    43  C          0.71795160       0.71009130       0.24692900
    44  C          0.28204840       0.28990870       0.75307100
    45  H          0.75409600       0.70634700       0.17959200
    46  H          0.24590400       0.29365300       0.82040800
    47  C          0.44030150       0.48576120       0.20017900
    48  C          0.55969850       0.51423880       0.79982100
    49  H          0.35804600       0.48499400       0.25794600
    50  H          0.64195400       0.51500600       0.74205400
    51  H          0.42400900       0.57720200       0.16850500
    52  H          0.57599100       0.42279800       0.83149500
    53  C          0.10930160       0.52602130       0.13048100
    54  C          0.89069840       0.47397870       0.86951900
    55  H          0.16001400       0.61187100       0.11139000
    56  H          0.83998600       0.38812900       0.88861000
    57  H          0.08735300       0.52264300       0.20122400
    58  H          0.91264700       0.47735700       0.79877600
    59  H          0.00469100       0.52329100       0.10128700
    60  H         -0.00469100       0.47670900       0.89871300
    61  C          0.59040180       0.60770140       0.38973100
    62  C          0.40959820       0.39229860       0.61026900
    63  H          0.53932200       0.53231200       0.42122900
    64  H          0.46067800       0.46768800       0.57877100
    65  C          0.19851150       0.02971120       0.10994900
    66  C          0.80148850       0.97028880       0.89005100
    67  H          0.20103300       0.97928000       0.04713900
    68  H          0.79896700       0.02072000       0.95286100
    69  C          0.22511150       0.40421120       0.09618800
    70  C          0.77488850       0.59578880       0.90381200
    71  C          0.74021170       0.82689140       0.30015100
    72  C          0.25978830       0.17310860       0.69984900
    73  H          0.79254400       0.90200400       0.26909900
    74  H          0.20745600       0.09799600       0.73090100
    75  C          0.00387150       0.21925130       0.06563900
    76  C         -0.00387150       0.78074870       0.93436100
    77  H          0.98127300       0.19318900      -0.00031900
    78  H          0.01872700       0.80681100       0.00031900
    79  H          0.91570600       0.28906000       0.09254100
    80  H          0.08429400       0.71094000       0.90745900
    81  C          0.01743150       0.09204130       0.13180900
    82  C          0.98256850       0.90795870       0.86819100
    83  H          0.93833700       0.02453100       0.11695700
    84  H          0.06166300       0.97546900       0.88304300
    85  H         -0.00580500       0.11927700       0.20077600
    86  H          0.00580500       0.88072300       0.79922400
    87  C          0.31819170       0.07586130       0.32261900
    88  C          0.68180830       0.92413870       0.67738100
    89  H          0.43706500       0.04222400       0.31909200
    90  H          0.56293500       0.95777600       0.68090800
    91  H          0.28015200       0.09477500       0.39166300
    92  H          0.71984800       0.90522500       0.60833700
    93  C          0.68668180       0.83449140       0.39799100
    94  C          0.31331820       0.16550860       0.60200900
    95  H          0.70189900       0.91451500       0.43416200
    96  H          0.29810100       0.08548500       0.56583800
    97  C          0.22285180       0.95822870       0.28959900
    98  C          0.77714820       0.04177130       0.71040100
    99  H          0.25050500       0.87482200       0.32842400
   100  H          0.74949500       0.12517800       0.67157600
   101  H          0.10260000       0.98438400       0.30446000
   102  H          0.89740000       0.01561600       0.69554000
   103  C          0.61075190       0.72455150       0.44281100
   104  C          0.38924810       0.27544850       0.55718900
   105  H          0.57266300       0.72921700       0.50985900
   106  H          0.42733700       0.27078300       0.49014100
   107  H          0.46440000       0.05230000       0.00320000
   108  H          0.53560000       0.94770000      -0.00320000
   109  H          0.50240000       0.31540000       0.00820000
   110  H          0.49760000       0.68460000      -0.00820000
   111  C         -0.01155810       0.43942160       0.46749110
   112  C          0.01155810       0.56057840       0.53250890
   113  H          0.93418900       0.47507400       0.41047900
   114  H          0.06581100       0.52492600       0.58952100
   115  H          0.09890100       0.39467100       0.44373200
   116  H          0.90109900       0.60532900       0.55626800
   117  C          0.88492000       0.33152170       0.51831120
   118  C          0.11508000       0.66847830       0.48168880
   119  H          0.77540500       0.37679400       0.54339800
   120  H          0.22459500       0.62320600       0.45660200
   121  H          0.94050100       0.29442300       0.57447100
   122  H          0.05949900       0.70557700       0.42552900
   123  C          0.85822000       0.21180190       0.45302130
   124  C          0.14178000       0.78819810       0.54697870
   125  H          0.80665000       0.24785300       0.39605300
   126  H          0.19335000       0.75214700       0.60394700
   127  H          0.78541400       0.14881900       0.48872700
   128  H          0.21458600       0.85118100       0.51127300
   129  H          0.96541400       0.16153600       0.43220000
   130  H          0.03458600       0.83846400       0.56780000
