data_QONYUP
_symmetry_space_group_name_H-M    'P1'
_symmetry_Int_Tables_number       1
loop_
_symmetry_equiv_pos_site_id
_symmetry_equiv_pos_as_xyz
1 x,y,z
_cell_length_a                   12.48625
_cell_length_b                   6.57942
_cell_length_c                   18.53037
_cell_angle_alpha                90.0
_cell_angle_beta                 107.0442
_cell_angle_gamma                90.0
loop_
_atom_site_label
_atom_site_type_symbol
_atom_site_fract_x
_atom_site_fract_y
_atom_site_fract_z
     1  O          0.10176100       0.54972000       0.07673800
     2  O          0.89823900       0.04972000       0.42326200
     3  O          0.89823900       0.45028000       0.92326200
     4  O          0.10176100       0.95028000       0.57673800
     5  H          0.15990000       0.48350000       0.08630000
     6  H          0.84010000      -0.01650000       0.41370000
     7  H          0.84010000       0.51650000       0.91370000
     8  H          0.15990000       0.01650000       0.58630000
     9  O          0.95929130       0.85352000       0.04848100
    10  O          0.04070870       0.35352000       0.45151900
    11  O          0.04070870       0.14648000       0.95151900
    12  O          0.95929130       0.64648000       0.54848100
    13  O          0.79063120       0.79012000       0.04499110
    14  O          0.20936880       0.29012000       0.45500890
    15  O          0.20936880       0.20988000       0.95500890
    16  O          0.79063120       0.70988000       0.54499110
    17  O          0.68611100       0.21844190       0.15680700
    18  O          0.31388900       0.71844190       0.34319300
    19  O          0.31388900       0.78155810       0.84319300
    20  O          0.68611100       0.28155810       0.65680700
    21  O          0.80647110      -0.00922000       0.21348900
    22  O          0.19352890       0.49078000       0.28651100
    23  O          0.19352890       0.00922000       0.78651100
    24  O          0.80647110       0.50922000       0.71348900
    25  O          0.17748110       0.02012000       0.20316800
    26  O          0.82251890       0.52012000       0.29683200
    27  O          0.82251890      -0.02012000       0.79683200
    28  O          0.17748110       0.47988000       0.70316800
    29  O          0.23557110       0.24400190       0.13953900
    30  O          0.76442890       0.74400190       0.36046100
    31  O          0.76442890       0.75599810       0.86046100
    32  O          0.23557110       0.25599810       0.63953900
    33  N          0.88954120       0.74272000       0.06073800
    34  N          0.11045880       0.24272000       0.43926200
    35  N          0.11045880       0.25728000       0.93926200
    36  N          0.88954120       0.75728000       0.56073800
    37  N          0.16150120       0.17362000       0.16384800
    38  N          0.83849880       0.67362000       0.33615200
    39  N          0.83849880       0.82638000       0.83615200
    40  N          0.16150120       0.32638000       0.66384800
    41  N          0.78239120       0.14942000       0.17759800
    42  N          0.21760880       0.64942000       0.32240200
    43  N          0.21760880       0.85058000       0.82240200
    44  N          0.78239120       0.35058000       0.67759800
    45  C          0.03428130       0.46373000       0.10456900
    46  C          0.96571870       0.96373000       0.39543100
    47  C          0.96571870       0.53627000       0.89543100
    48  C          0.03428130       0.03627000       0.60456900
    49  C          0.05346130       0.27252000       0.14619900
    50  C          0.94653870       0.77252000       0.35380100
    51  C          0.94653870       0.72748000       0.85380100
    52  C          0.05346130       0.22748000       0.64619900
    53  C          0.97380130       0.17412000       0.17079900
    54  C          0.02619870       0.67412000       0.32920100
    55  C          0.02619870       0.82588000       0.82920100
    56  C          0.97380130       0.32588000       0.67079900
    57  H         -0.00960000       0.05130000       0.19650000
    58  H          0.00960000       0.55130000       0.30350000
    59  H          0.00960000       0.94870000       0.80350000
    60  H         -0.00960000       0.44870000       0.69650000
    61  C          0.86888130       0.25932000       0.15701900
    62  C          0.13111870       0.75932000       0.34298100
    63  C          0.13111870       0.74068000       0.84298100
    64  C          0.86888130       0.24068000       0.65701900
    65  C          0.84340130       0.44702000       0.12161900
    66  C          0.15659870       0.94702000       0.37838100
    67  C          0.15659870       0.55298000       0.87838100
    68  C          0.84340130       0.05298000       0.62161900
    69  H          0.77320000       0.50510000       0.11460000
    70  H          0.22680000       0.00510000       0.38540000
    71  H          0.22680000       0.49490000       0.88540000
    72  H          0.77320000      -0.00510000       0.61460000
    73  C          0.92286130       0.54482000       0.09723900
    74  C          0.07713870       0.04482000       0.40276100
    75  C          0.07713870       0.45518000       0.90276100
    76  C          0.92286130       0.95518000       0.59723900
    77  N          0.50713110       0.58982000       0.08412700
    78  N          0.49286890       0.08982000       0.41587300
    79  N          0.49286890       0.41018000       0.91587300
    80  N          0.50713110       0.91018000       0.58412700
    81  N          0.41047110       0.91716190       0.07051700
    82  N          0.58952890       0.41716190       0.42948300
    83  N          0.58952890       0.08283810       0.92948300
    84  N          0.41047110       0.58283810       0.57051700
    85  N          0.31908110       0.61192000       0.09576700
    86  N          0.68091890       0.11192000       0.40423300
    87  N          0.68091890       0.38808000       0.90423300
    88  N          0.31908110       0.88808000       0.59576700
    89  N          0.47502110       0.75342000       0.19404700
    90  N          0.52497890       0.25342000       0.30595300
    91  N          0.52497890       0.24658000       0.80595300
    92  N          0.47502110       0.74658000       0.69404700
    93  C          0.55123130       0.62762000       0.16582900
    94  C          0.44876870       0.12762000       0.33417100
    95  C          0.44876870       0.37238000       0.83417100
    96  C          0.55123130       0.87238000       0.66582900
    97  H          0.56290000       0.49870000       0.19240000
    98  H          0.43710000      -0.00130000       0.30760000
    99  H          0.43710000       0.50130000       0.80760000
   100  H          0.56290000       0.00130000       0.69240000
   101  H          0.62320000       0.69530000       0.17630000
   102  H          0.37680000       0.19530000       0.32370000
   103  H          0.37680000       0.30470000       0.82370000
   104  H          0.62320000       0.80470000       0.67630000
   105  C          0.48850130       0.78802000       0.04500900
   106  C          0.51149870       0.28802000       0.45499100
   107  C          0.51149870       0.21198000       0.95499100
   108  C          0.48850130       0.71198000       0.54500900
   109  H          0.55960000       0.85790000       0.05410000
   110  H          0.44040000       0.35790000       0.44590000
   111  H          0.44040000       0.14210000       0.94590000
   112  H          0.55960000       0.64210000       0.55410000
   113  H          0.45870000       0.76550000       0.99110000
   114  H          0.54130000       0.26550000       0.50890000
   115  H          0.54130000       0.23450000       0.00890000
   116  H          0.45870000       0.73450000       0.49110000
   117  C          0.30394130       0.81542000       0.05521900
   118  C          0.69605870       0.31542000       0.44478100
   119  C          0.69605870       0.18458000       0.94478100
   120  C          0.30394130       0.68458000       0.55521900
   121  H          0.27280000       0.79430000       0.00130000
   122  H          0.72720000       0.29430000       0.49870000
   123  H          0.72720000       0.20570000      -0.00130000
   124  H          0.27280000       0.70570000       0.50130000
   125  H          0.25210000       0.89910000       0.07220000
   126  H          0.74790000       0.39910000       0.42780000
   127  H          0.74790000       0.10090000       0.92780000
   128  H          0.25210000       0.60090000       0.57220000
   129  C          0.36862130       0.64992000       0.17970900
   130  C          0.63137870       0.14992000       0.32029100
   131  C          0.63137870       0.35008000       0.82029100
   132  C          0.36862130       0.85008000       0.67970900
   133  H          0.31750000       0.73210000       0.19790000
   134  H          0.68250000       0.23210000       0.30210000
   135  H          0.68250000       0.26790000       0.80210000
   136  H          0.31750000       0.76790000       0.69790000
   137  H          0.37920000       0.52140000       0.20660000
   138  H          0.62080000       0.02140000       0.29340000
   139  H          0.62080000       0.47860000       0.79340000
   140  H          0.37920000       0.97860000       0.70660000
   141  C          0.40103140       0.48512000       0.06873900
   142  C          0.59896860      -0.01488000       0.43126100
   143  C          0.59896860       0.51488000       0.93126100
   144  C          0.40103140       0.01488000       0.56873900
   145  H          0.41190000       0.35470000       0.09430000
   146  H          0.58810000       0.85470000       0.40570000
   147  H          0.58810000       0.64530000       0.90570000
   148  H          0.41190000       0.14530000       0.59430000
   149  H          0.37110000       0.46070000       0.01490000
   150  H          0.62890000       0.96070000       0.48510000
   151  H          0.62890000       0.53930000       0.98510000
   152  H          0.37110000       0.03930000       0.51490000
   153  C          0.45699140       0.94772000       0.15267900
   154  C          0.54300860       0.44772000       0.34732100
   155  C          0.54300860       0.05228000       0.84732100
   156  C          0.45699140       0.55228000       0.65267900
   157  H          0.52770000       0.01960000       0.16300000
   158  H          0.47230000       0.51960000       0.33700000
   159  H          0.47230000      -0.01960000       0.83700000
   160  H          0.52770000       0.48040000       0.66300000
   161  H          0.40600000       0.03120000       0.17050000
   162  H          0.59400000       0.53120000       0.32950000
   163  H          0.59400000       0.96880000       0.82950000
   164  H          0.40600000       0.46880000       0.67050000
