data_QOQFAG
_symmetry_space_group_name_H-M    'P1'
_symmetry_Int_Tables_number       1
loop_
_symmetry_equiv_pos_site_id
_symmetry_equiv_pos_as_xyz
1 x,y,z
_cell_length_a                   7.38208
_cell_length_b                   8.00657
_cell_length_c                   19.1772
_cell_angle_alpha                83.9074
_cell_angle_beta                 80.5464
_cell_angle_gamma                70.6404
loop_
_atom_site_label
_atom_site_type_symbol
_atom_site_fract_x
_atom_site_fract_y
_atom_site_fract_z
     1  S          0.60666700       0.32024600       0.71611200
     2  S          0.39333300       0.67975400       0.28388800
     3  N          0.41182000       0.63077180       0.81007800
     4  N          0.58818000       0.36922820       0.18992200
     5  H          0.31077800       0.71394900       0.82977700
     6  H          0.68922200       0.28605100       0.17022300
     7  C          0.56622000       0.31222000       0.80946900
     8  C          0.43378000       0.68778000       0.19053100
     9  C          0.46892000       0.46562000       0.84595900
    10  C          0.53108000       0.53438000       0.15404100
    11  C          0.50562000       0.67192000       0.74473900
    12  C          0.49438000       0.32808000       0.25526100
    13  C          0.60682000       0.54072000       0.69701900
    14  C          0.39318000       0.45928000       0.30298100
    15  C          0.69383000       0.58653000       0.63147900
    16  C          0.30617000       0.41347000       0.36852100
    17  H          0.76656800       0.49640800       0.59996900
    18  H          0.23343200       0.50359200       0.40003100
    19  C          0.67623000       0.76163000       0.61133100
    20  C          0.32377000       0.23837000       0.38866900
    21  H          0.73296100       0.79220400       0.56573200
    22  H          0.26703900       0.20779600       0.43426800
    23  C          0.57533000       0.89153000       0.65809110
    24  C          0.42467000       0.10847000       0.34190890
    25  H          0.56221700       0.01216100       0.64455500
    26  H          0.43778300      -0.01216100       0.35544500
    27  C          0.49333000       0.84692000       0.72447100
    28  C          0.50667000       0.15308000       0.27552900
    29  H          0.42763700       0.93704000       0.75672700
    30  H          0.57236300       0.06296000       0.24327300
    31  C          0.42673000       0.44943000       0.91937100
    32  C          0.57327000       0.55057000       0.08062900
    33  H          0.36082100       0.55256600       0.94502700
    34  H          0.63917900       0.44743400       0.05497300
    35  C          0.47933000       0.28563000       0.95542110
    36  C          0.52067000       0.71437000       0.04457890
    37  H          0.44725200       0.27659300       0.00541500
    38  H          0.55274800       0.72340700      -0.00541500
    39  C          0.57773000       0.13553000       0.91913110
    40  C          0.42227000       0.86447000       0.08086890
    41  H          0.61516000       0.02290500       0.94394800
    42  H          0.38484000       0.97709500       0.05605200
    43  C          0.62173000       0.14932000       0.84672110
    44  C          0.37827000       0.85068000       0.15327890
    45  H          0.69120500       0.04561600       0.82179400
    46  H          0.30879500       0.95438400       0.17820600
    47  N          0.09263000       0.25202000       0.75197900
    48  N          0.90737000       0.74798000       0.24802100
    49  N          0.86527000       0.68342000       0.86102100
    50  N          0.13473000       0.31658000       0.13897900
    51  N          0.12013000       0.18312000       0.57102100
    52  N          0.87987000       0.81688000       0.42897900
    53  N          0.38053000       0.74133000       0.46607900
    54  N          0.61947000       0.25867000       0.53392100
    55  C          0.10123000       0.38432000       0.72624100
    56  C          0.89877000       0.61568000       0.27375900
    57  C          0.10962000       0.55282000       0.69360900
    58  C          0.89038000       0.44718000       0.30639100
    59  C          0.02652000       0.70632000       0.73205900
    60  C          0.97348000       0.29368000       0.26794100
    61  C          0.93627000       0.69382000       0.80401100
    62  C          0.06373000       0.30618000       0.19598900
    63  C          0.03263000       0.86872000       0.70029900
    64  C          0.96737000       0.13128000       0.29970100
    65  H          0.97698800       0.97273600       0.72612400
    66  H          0.02301200       0.02726400       0.27387600
    67  C          0.11942000       0.87932000       0.63115900
    68  C          0.88058000       0.12068000       0.36884100
    69  C          0.12173000       0.04862000       0.59773100
    70  C          0.87827000       0.95138000       0.40226900
    71  C          0.20542000       0.72522000       0.59327900
    72  C          0.79458000       0.27478000       0.40672100
    73  C          0.30233000       0.73522000       0.52231100
    74  C          0.69767000       0.26478000       0.47768900
    75  C          0.19923000       0.56292000       0.62488900
    76  C          0.80077000       0.43708000       0.37511100
    77  H          0.25661600       0.45852400       0.59927400
    78  H          0.74338400       0.54147600       0.40072600
    79  N          0.18464000       0.93613000       0.90459120
    80  N          0.81536000       0.06387000       0.09540880
    81  C          0.10833000       0.07733000       0.91806110
    82  C          0.89167000       0.92267000       0.08193890
    83  C          0.01014000       0.25883000       0.93633140
    84  C          0.98986000       0.74117000       0.06366860
    85  H          0.08292100       0.33453400       0.91106400
    86  H          0.91707900       0.66546600       0.08893600
    87  H          0.00129300       0.26691400       0.98747200
    88  H         -0.00129300       0.73308600       0.01252800
    89  H          0.87936400       0.29795100       0.92283700
    90  H          0.12063600       0.70204900       0.07716300
