data_QORKEQ
_symmetry_space_group_name_H-M    'P1'
_symmetry_Int_Tables_number       1
loop_
_symmetry_equiv_pos_site_id
_symmetry_equiv_pos_as_xyz
1 x,y,z
_cell_length_a                   7.12313
_cell_length_b                   10.05034
_cell_length_c                   13.54455
_cell_angle_alpha                82.6462
_cell_angle_beta                 76.9392
_cell_angle_gamma                72.44301
loop_
_atom_site_label
_atom_site_type_symbol
_atom_site_fract_x
_atom_site_fract_y
_atom_site_fract_z
     1  Cl         0.19188900       0.70860600       0.71564500
     2  Cl         0.80811100       0.29139400       0.28435500
     3  S          0.93163100       0.35911600       0.72110500
     4  S          0.06836900       0.64088400       0.27889500
     5  Cl         0.39105120       0.07097800       0.74512600
     6  Cl         0.60894880       0.92902200       0.25487400
     7  O          0.62133000       0.55871180       0.88033120
     8  O          0.37867000       0.44128820       0.11966880
     9  H          0.70819700       0.49974400       0.84574300
    10  H          0.29180300       0.50025600       0.15425700
    11  N          0.69093000       0.59269190       0.63626140
    12  N          0.30907000       0.40730810       0.36373860
    13  N          0.63103000       0.64112000       0.54540150
    14  N          0.36897000       0.35888000       0.45459850
    15  H          0.55851000       0.72302000       0.52946900
    16  H          0.44149000       0.27698000       0.47053100
    17  N          0.81633000       0.42312000       0.53891160
    18  N          0.18367000       0.57688000       0.46108840
    19  C          0.50623000       0.65712000       0.81682170
    20  C          0.49377000       0.34288000       0.18317830
    21  C          0.64033000       0.69092000       0.71593170
    22  C          0.35967000       0.30908000       0.28406830
    23  H          0.57335600       0.78284500       0.68897000
    24  H          0.42664400       0.21715500       0.31103000
    25  H          0.76469300       0.69636100       0.73076800
    26  H          0.23530700       0.30363900       0.26923200
    27  C          0.33693000       0.60132000       0.80245170
    28  C          0.66307000       0.39868000       0.19754830
    29  C          0.41154000       0.79113000       0.87639180
    30  C          0.58846000       0.20887000       0.12360820
    31  H          0.30463500       0.85257400       0.84478500
    32  H          0.69536500       0.14742600       0.15521500
    33  H          0.35160200       0.76518700       0.94507700
    34  H          0.64839800       0.23481300       0.05492300
    35  C          0.55763000       0.87042000       0.88138180
    36  C          0.44237000       0.12958000       0.11861820
    37  C          0.80933000       0.45952000       0.63362180
    38  C          0.19067000       0.54048000       0.36637820
    39  C          0.35764000       0.44813000       0.80652000
    40  C          0.64236000       0.55187000       0.19348000
    41  H          0.48264700       0.38332700       0.81968500
    42  H          0.51735300       0.61667300       0.18031500
    43  H          0.29476700       0.41635800       0.76109500
    44  H          0.70523300       0.58364200       0.23890500
    45  C          0.70774000       0.53633000       0.48986190
    46  C          0.29226000       0.46367000       0.51013810
    47  H          0.69086200       0.53767100       0.42358500
    48  H          0.30913800       0.46232900       0.57641500
    49  C          0.56584000      -0.00667000       0.82292000
    50  C          0.43416000       0.00667000       0.17708000
    51  C          0.22214000       0.53583000       0.89172000
    52  C          0.77786000       0.46417000       0.10828000
    53  H          0.07814300       0.55662800       0.89726200
    54  H          0.92185700       0.44337200       0.10273800
    55  H          0.26601000       0.52360000       0.95584800
    56  H          0.73399000       0.47640000       0.04415200
    57  C          0.69424000       0.82043000       0.94552000
    58  C          0.30576000       0.17957000       0.05448000
    59  H          0.69078900       0.73994400       0.98735700
    60  H          0.30921100       0.26005600       0.01264300
    61  C          0.70754000       0.06133000       0.82442000
    62  C          0.29246000       0.93867000       0.17558000
    63  H          0.71055600       0.14261100       0.78355700
    64  H          0.28944400       0.85738900       0.21644300
    65  C          0.83664000       0.88884000       0.94813000
    66  C          0.16336000       0.11116000       0.05187000
    67  H          0.92706500       0.85381500      -0.00860500
    68  H          0.07293500       0.14618500       0.00860500
    69  C          0.84334000       0.00763000       0.88683000
    70  C          0.15666000      -0.00763000       0.11317000
    71  H          0.94022000       0.05189500       0.88749500
    72  H          0.05978000       0.94810500       0.11250500
    73  O          0.96143000       0.14531180       0.49337170
    74  O          0.03857000       0.85468820       0.50662830
    75  C          0.80365000       0.08113000       0.51703000
    76  C          0.19635000       0.91887000       0.48297000
    77  H          0.68734400       0.14229100       0.49231400
    78  H          0.31265600       0.85770900       0.50768600
    79  H          0.76559700       0.06675200       0.59017200
    80  H          0.23440300       0.93324800       0.40982800
    81  C          0.13455000       0.05443000       0.52933000
    82  C          0.86545000       0.94557000       0.47067000
    83  H          0.10248300       0.03992300       0.60270100
    84  H          0.89751700       0.96007700       0.39729900
    85  H          0.24388300       0.09716600       0.51178000
    86  H          0.75611700       0.90283400       0.48822000
