data_QORREV
_symmetry_space_group_name_H-M    'P1'
_symmetry_Int_Tables_number       1
loop_
_symmetry_equiv_pos_site_id
_symmetry_equiv_pos_as_xyz
1 x,y,z
_cell_length_a                   10.179813
_cell_length_b                   10.418517
_cell_length_c                   11.2563
_cell_angle_alpha                63.44819
_cell_angle_beta                 70.39213
_cell_angle_gamma                89.86512
loop_
_atom_site_label
_atom_site_type_symbol
_atom_site_fract_x
_atom_site_fract_y
_atom_site_fract_z
     1  C          0.54288130       0.79696130       0.93409120
     2  C          0.45711870       0.20303870       0.06590880
     3  C          0.69985140       0.89011140       0.00204140
     4  C          0.30014860       0.10988860      -0.00204140
     5  C          0.75404130       0.78804130       0.11348130
     6  C          0.24595870       0.21195870       0.88651870
     7  C          0.40391120       0.80203130       0.74104120
     8  C          0.59608880       0.19796870       0.25895880
     9  C          0.24534130       0.89395130       0.62487120
    10  C          0.75465870       0.10604870       0.37512880
    11  C          0.22679120       0.83858120       0.52634120
    12  C          0.77320880       0.16141880       0.47365880
    13  N          0.41600110       0.68563110       0.85498110
    14  N          0.58399890       0.31436890       0.14501890
    15  N          0.53322110       0.70159110       0.88577110
    16  N          0.46677890       0.29840890       0.11422890
    17  N          0.86856120       0.71643130       0.05109130
    18  N          0.13143880       0.28356870       0.94890870
    19  N          0.63896130       0.66462130       0.24374120
    20  N          0.36103870       0.33537870       0.75625880
    21  N          0.81549130       0.86789140       0.17191140
    22  N          0.18450870       0.13210860       0.82808860
    23  N          0.15556110       0.94042110       0.43019110
    24  N          0.84443890       0.05957890       0.56980890
    25  N          0.12883110       0.69135110       0.61070110
    26  N          0.87116890       0.30864890       0.38929890
    27  N          0.36332110       0.82010110       0.43063110
    28  N          0.63667890       0.17989890       0.56936890
    29  O          0.45112900       0.85762900       0.97373900
    30  O          0.54887100       0.14237100       0.02626100
    31  O          0.67822900       0.81541900       0.92918900
    32  O          0.32177100       0.18458100       0.07081100
    33  O          0.96796110       0.80240130       0.94719130
    34  O          0.03203890       0.19759870       0.05280870
    35  O          0.84880120       0.58454110       0.10723120
    36  O          0.15119880       0.41545890       0.89276880
    37  O          0.54099110       0.62706120       0.22236120
    38  O          0.45900890       0.37293880       0.77763880
    39  O          0.65701130       0.61599130       0.35566110
    40  O          0.34298870       0.38400870       0.64433890
    41  O          0.92677130       0.84207150       0.18790160
    42  O          0.07322870       0.15792850       0.81209840
    43  O          0.74554120       0.95312120       0.19754130
    44  O          0.25445880       0.04687880       0.80245870
    45  O          0.49400900       0.90732900       0.65473900
    46  O          0.50599100       0.09267100       0.34526100
    47  O          0.27330800       0.77953900       0.73844800
    48  O          0.72669200       0.22046100       0.26155200
    49  O          0.17371100       0.06646100       0.40430100
    50  O          0.82628900       0.93353900       0.59569900
    51  O          0.08612100       0.88677110       0.38879100
    52  O          0.91387900       0.11322890       0.61120900
    53  O          0.16390110       0.59789100       0.57588110
    54  O          0.83609890       0.40210900       0.42411890
    55  O          0.02123900       0.68340100       0.70439100
    56  O          0.97876100       0.31659900       0.29560900
    57  O          0.44305900       0.76129100       0.48989100
    58  O          0.55694100       0.23870900       0.51010900
    59  O          0.37972100       0.86209100       0.30585900
    60  O          0.62027900       0.13790900       0.69414100
    61  H          0.34181600       0.63391500       0.92581600
    62  H          0.65818400       0.36608500       0.07418400
    63  H          0.60331700       0.65971600       0.86261600
    64  H          0.39668300       0.34028400       0.13738400
    65  H          0.77391500       0.97521500       0.93631500
    66  H          0.22608500       0.02478500       0.06368500
    67  H          0.61181600       0.91711500       0.04971600
    68  H          0.38818400       0.08288500       0.95028400
    69  H          0.15731400       0.91961400       0.66731400
    70  H          0.84268600       0.08038600       0.33268600
    71  H          0.32011600       0.97581600       0.57131500
    72  H          0.67988400       0.02418400       0.42868500
    73  C          0.16258170       0.63772170       0.24066190
    74  C          0.83741830       0.36227830       0.75933810
    75  C          0.22750120       0.50629130       0.25246130
    76  C          0.77249880       0.49370870       0.74753870
    77  C          0.23036180       0.40112180       0.39440150
    78  C          0.76963820       0.59887820       0.60559850
    79  O          0.27772900       0.48583900       0.14908900
    80  O          0.72227100       0.51416100       0.85091100
    81  H          0.16141900       0.69120000       0.15020000
    82  H          0.83858100       0.30880000       0.84980000
    83  H          0.07220000       0.61220000       0.31020000
    84  H          0.92780000       0.38780000       0.68980000
    85  H          0.21920000       0.69720000       0.25720000
    86  H          0.78080000       0.30280000       0.74280000
    87  H          0.14320000       0.37020000       0.46120000
    88  H          0.85680000       0.62980000       0.53880000
    89  H          0.27820000       0.44520000       0.43020000
    90  H          0.72180000       0.55480000       0.56980000
    91  H          0.27420000       0.31720000       0.39420000
    92  H          0.72580000       0.68280000       0.60580000
