data_QORRIZ
_symmetry_space_group_name_H-M    'P1'
_symmetry_Int_Tables_number       1
loop_
_symmetry_equiv_pos_site_id
_symmetry_equiv_pos_as_xyz
1 x,y,z
_cell_length_a                   10.20127
_cell_length_b                   11.32834
_cell_length_c                   11.44826
_cell_angle_alpha                63.9774
_cell_angle_beta                 64.9556
_cell_angle_gamma                87.7134
loop_
_atom_site_label
_atom_site_type_symbol
_atom_site_fract_x
_atom_site_fract_y
_atom_site_fract_z
     1  C          0.23269170       0.47797140       0.54931150
     2  C          0.76730830       0.52202860       0.45068850
     3  C          0.14662000       0.35772170       0.46622000
     4  C          0.85338000       0.64227830       0.53378000
     5  C          0.18751170       0.24202140       0.43443160
     6  C          0.81248830       0.75797860       0.56556840
     7  C          0.20628170       0.58501140       0.75459160
     8  C          0.79371830       0.41498860       0.24540840
     9  C          0.11243170       0.73365160       0.85149160
    10  C          0.88756830       0.26634840       0.14850840
    11  C          0.17182170       0.76284140       0.93918150
    12  C          0.82817830       0.23715860       0.06081850
    13  N          0.32716150       0.57450140       0.64886150
    14  N          0.67283850       0.42549860       0.35113850
    15  N          0.31380150       0.47221140       0.61800150
    16  N          0.68619850       0.52778860       0.38199850
    17  N          0.35309150       0.25011130       0.36867140
    18  N          0.64690850       0.74988870       0.63132860
    19  N          0.13642140       0.24209120       0.32749140
    20  N          0.86357860       0.75790880       0.67250860
    21  N          0.11715150       0.10524130       0.56826140
    22  N          0.88284850       0.89475870       0.43173860
    23  N          0.18615150       0.63860130       0.05732140
    24  N          0.81384850       0.36139870       0.94267860
    25  N          0.32255150       0.85261130       0.84168140
    26  N          0.67744850       0.14738870       0.15831860
    27  N          0.07255160       0.83694130       0.01514140
    28  N          0.92744840       0.16305870      -0.01514140
    29  O          0.17201120       0.56781100       0.50357120
    30  O          0.82798880       0.43218900       0.49642880
    31  O          0.23080130       0.36424110       0.53658120
    32  O          0.76919870       0.63575890       0.46341880
    33  O          0.40214130       0.15759120       0.43218130
    34  O          0.59785870       0.84240880       0.56781870
    35  O          0.42101130       0.35269120       0.25805130
    36  O          0.57898870       0.64730880       0.74194870
    37  O          0.21616140       0.21221130       0.23487120
    38  O          0.78383860       0.78778870       0.76512880
    39  O          0.01508130       0.27029110       0.34923130
    40  O          0.98491870       0.72970890       0.65076870
    41  O          0.11375140       0.01090110       0.54528130
    42  O          0.88624860       0.98909890       0.45471870
    43  O          0.07170160       0.10171130       0.68602130
    44  O          0.92829840       0.89828870       0.31397870
    45  O          0.09761120       0.50143100       0.84210110
    46  O          0.90238880       0.49856900       0.15789890
    47  O          0.22922110       0.70667100       0.74668110
    48  O          0.77077890       0.29332900       0.25331890
    49  O          0.23567130       0.55333110       0.02233130
    50  O          0.76432870       0.44666890       0.97766870
    51  O          0.14927140       0.63545120       0.17471120
    52  O          0.85072860       0.36454880       0.82528880
    53  O          0.41949130       0.81938120       0.87764120
    54  O          0.58050870       0.18061880       0.12235880
    55  O          0.32997130       0.95146100       0.73549120
    56  O          0.67002870       0.04853900       0.26450880
    57  O          0.94206870       0.80149110       0.06248130
    58  O          0.05793130       0.19850890       0.93751870
    59  O          0.13182140       0.92152120       0.02410130
    60  O          0.86817860       0.07847880       0.97589870
    61  H          0.38420000       0.64151800       0.58161900
    62  H          0.61580000       0.35848200       0.41838100
    63  H          0.34720000       0.40720000       0.64720000
    64  H          0.65280000       0.59280000       0.35280000
    65  H          0.16931900       0.43231800       0.37920000
    66  H          0.83068100       0.56768200       0.62080000
    67  H          0.04820000       0.34651700       0.52291900
    68  H          0.95180000       0.65348300       0.47708100
    69  H          0.08241800       0.81131600       0.79941800
    70  H          0.91758200       0.18868400       0.20058200
    71  H          0.03620000       0.66531700       0.91091900
    72  H          0.96380000       0.33468300       0.08908100
    73  C          0.45567190       0.82553160       0.29115180
    74  C          0.54432810       0.17446840       0.70884820
    75  C          0.33492000       0.88586180       0.36192000
    76  C          0.66508000       0.11413820       0.63808000
    77  H          0.30150000       0.94540000       0.29140000
    78  H          0.69850000       0.05460000       0.70860000
    79  H          0.37100000       0.93700000       0.39600000
    80  H          0.62900000       0.06300000       0.60400000
    81  H          0.25280000       0.81490000       0.44490000
    82  H          0.74720000       0.18510000       0.55510000
    83  C          0.59942000       0.80759190       0.07576190
    84  C          0.40058000       0.19240810       0.92423810
    85  H          0.68310000       0.80800000       0.09810000
    86  H          0.31690000       0.19200000       0.90190000
    87  H          0.63550000       0.86380000       0.96950000
    88  H          0.36450000       0.13620000       0.03050000
    89  C          0.54363000       0.66768190       0.11762000
    90  C          0.45637000       0.33231810       0.88238000
    91  H          0.62300000       0.63270000       0.06360000
    92  H          0.37700000       0.36730000       0.93640000
    93  H          0.46180000       0.66720000       0.09410000
    94  H          0.53820000       0.33280000       0.90590000
    95  H          0.50950000       0.61150000       0.22240000
    96  H          0.49050000       0.38850000       0.77760000
    97  O          0.51860130       0.74732110       0.35211120
    98  O          0.48139870       0.25267890       0.64788880
    99  O          0.48437140       0.86393120       0.15379120
   100  O          0.51562860       0.13606880       0.84620880
