data_QORYIJ
_symmetry_space_group_name_H-M    'P1'
_symmetry_Int_Tables_number       1
loop_
_symmetry_equiv_pos_site_id
_symmetry_equiv_pos_as_xyz
1 x,y,z
_cell_length_a                   8.76737
_cell_length_b                   6.23024
_cell_length_c                   25.947319
_cell_angle_alpha                90.0
_cell_angle_beta                 93.5333
_cell_angle_gamma                90.0
loop_
_atom_site_label
_atom_site_type_symbol
_atom_site_fract_x
_atom_site_fract_y
_atom_site_fract_z
     1  S          0.48336400       0.37466600       0.40396200
     2  S          0.51663600       0.87466600       0.59603800
     3  S          0.69589400       0.23430600       0.29735200
     4  S          0.30410600       0.73430600       0.70264800
     5  O          0.05357150       0.45612000       0.60994500
     6  O          0.94642850       0.95612000       0.39005500
     7  O          0.11488160       0.81818000       0.11196600
     8  O          0.88511840       0.31818000       0.88803400
     9  O          0.20127140       0.31834190       0.24633500
    10  O          0.79872860       0.81834190       0.75366500
    11  O          0.35317130       0.21702000       0.16779400
    12  O          0.64682870       0.71702000       0.83220600
    13  C          0.35754170       0.56613000       0.42661600
    14  C          0.64245830       0.06613000       0.57338400
    15  C          0.33089160       0.72803000       0.39148500
    16  C          0.66910840       0.22803000       0.60851500
    17  H          0.26687400       0.84731400       0.39743000
    18  H          0.73312600       0.34731400       0.60257000
    19  C          0.40836160       0.70062000       0.34501500
    20  C          0.59163840       0.20062000       0.65498500
    21  C          0.49768160       0.51412000       0.34665600
    22  C          0.50231840       0.01412000       0.65334400
    23  C          0.57946160       0.45552000       0.30365600
    24  C          0.42053840       0.95552000       0.69634400
    25  C          0.56841160       0.58002000       0.25867500
    26  C          0.43158840       0.08002000       0.74132500
    27  C          0.65496160       0.48892000       0.21926600
    28  C          0.34503840      -0.01108000       0.78073400
    29  H          0.66082500       0.55189900       0.18609800
    30  H          0.33917500       0.05189900       0.81390200
    31  C          0.72896160       0.30202000       0.23367600
    32  C          0.27103840       0.80202000       0.76632400
    33  C          0.28832170       0.53903000       0.47620600
    34  C          0.71167830       0.03903000       0.52379400
    35  C          0.32142000       0.36263000       0.50812700
    36  C          0.67858000       0.86263000       0.49187300
    37  H          0.39580400       0.26154400       0.49864500
    38  H          0.60419600       0.76154400       0.50135500
    39  C          0.24742000       0.33143000       0.55366700
    40  C          0.75258000       0.83143000       0.44633300
    41  H          0.27172200       0.21055500       0.57493400
    42  H          0.72827800       0.71055500       0.42506600
    43  C          0.13881180       0.47703000       0.56758600
    44  C          0.86118820       0.97703000       0.43241400
    45  C          0.10662000       0.65803000       0.53715700
    46  C          0.89338000       0.15803000       0.46284300
    47  H          0.03392900       0.76033900       0.54730000
    48  H          0.96607100       0.26033900       0.45270000
    49  C          0.18072000       0.68803000       0.49222700
    50  C          0.81928000       0.18803000       0.50777300
    51  H          0.15844000       0.81181000       0.47175700
    52  H          0.84156000       0.31181000       0.52824300
    53  C          0.07752000       0.26743000       0.64028700
    54  C          0.92248000       0.76743000       0.35971300
    55  H          0.05822300       0.14054500       0.61853500
    56  H          0.94177700       0.64054500       0.38146500
    57  H          0.00760200       0.26736100       0.66832700
    58  H         -0.00760200       0.76736100       0.33167300
    59  H          0.18330300       0.26449200       0.65488700
    60  H          0.81669700       0.76449200       0.34511300
    61  C          0.82601160       0.16812000       0.20261600
    62  C          0.17398840       0.66812000       0.79738400
    63  C          0.86454190       0.23683000       0.15372600
    64  C          0.13545810       0.73683000       0.84627400
    65  H          0.82482900       0.36875300       0.14035400
    66  H          0.17517100       0.86875300       0.85964600
    67  C          0.95942000       0.11573000       0.12459700
    68  C          0.04058000       0.61573000       0.87540300
    69  H         -0.01574600       0.16546500       0.09152600
    70  H          0.01574600       0.66546500       0.90847400
    71  C          0.01920180       0.92107000       0.14328700
    72  C          0.98079820       0.42107000       0.85671300
    73  C          0.97782000       0.84617000       0.19066700
    74  C          0.02218000       0.34617000       0.80933300
    75  H          0.01483300       0.71173500       0.20333700
    76  H         -0.01483300       0.21173500       0.79666300
    77  C          0.88162000       0.96917000       0.21972700
    78  C          0.11838000       0.46917000       0.78027300
    79  H          0.85309000       0.91591000       0.25205800
    80  H          0.14691000       0.41591000       0.74794200
    81  C          0.18392000       0.62257000       0.13085900
    82  C          0.81608000       0.12257000       0.86914100
    83  H          0.25510200       0.56982800       0.10606400
    84  H          0.74489800       0.06982800       0.89393600
    85  H          0.10432100       0.51481900       0.13523100
    86  H          0.89567900       0.01481900       0.86476900
    87  H          0.23953000       0.64934300       0.16415100
    88  H          0.76047000       0.14934300       0.83584900
    89  C          0.39574160       0.83132000       0.29948600
    90  C          0.60425840       0.33132000       0.70051400
    91  C          0.30225160       0.01672000       0.29668600
    92  C          0.69774840       0.51672000       0.70331400
    93  H          0.24765800       0.05672600       0.32569300
    94  H          0.75234200       0.55672600       0.67430700
    95  C          0.28914160       0.14012000       0.25254600
    96  C          0.71085840       0.64012000       0.74745400
    97  C          0.37206160       0.08202000       0.20908600
    98  C          0.62793840       0.58202000       0.79091400
    99  C          0.46231160       0.90062000       0.21109600
   100  C          0.53768840       0.40062000       0.78890400
   101  H          0.51644300       0.86188500       0.18187100
   102  H          0.48355700       0.36188500       0.81812900
   103  C          0.47569160       0.77082000       0.25601500
   104  C          0.52430840       0.27082000       0.74398500
   105  C          0.11290180       0.37473000       0.28869600
   106  C          0.88709820       0.87473000       0.71130400
   107  H          0.04849500       0.49886000       0.27924300
   108  H          0.95150500      -0.00114000       0.72075700
   109  H          0.18140900       0.41073200       0.31871200
   110  H          0.81859100       0.91073200       0.68128800
   111  H          0.04810100       0.25313600       0.29720300
   112  H          0.95189900       0.75313600       0.70279700
   113  C          0.43402000       0.16233000       0.12362600
   114  C          0.56598000       0.66233000       0.87637400
   115  H          0.39227600       0.02897800       0.10847900
   116  H          0.60772400       0.52897800       0.89152100
   117  H          0.54245500       0.14237200       0.13391100
   118  H          0.45754500       0.64237200       0.86608900
   119  H          0.42268100       0.27807600       0.09809100
   120  H          0.57731900       0.77807600       0.90190900
   121  O          0.68033000       0.50804000       0.05439900
   122  O          0.31967000       0.00804000       0.94560100
   123  C          0.63283000       0.71595000       0.06963100
   124  C          0.36717000       0.21595000       0.93036900
   125  H          0.69117200       0.76096600       0.10168300
   126  H          0.30882800       0.26096600       0.89831700
   127  H          0.52268500       0.71489100       0.07613300
   128  H          0.47731500       0.21489100       0.92386700
   129  C          0.66243000       0.86775000       0.02616100
   130  C          0.33757000       0.36775000       0.97383900
   131  H          0.67977600       0.01620700       0.03880400
   132  H          0.32022400       0.51620700       0.96119600
   133  H          0.57746900       0.86692700      -0.00079800
   134  H          0.42253100       0.36692700       0.00079800
   135  C          0.80813000       0.76987000       0.00645110
   136  C          0.19187000       0.26987000       0.99354890
   137  H          0.81404800       0.79479500       0.96894600
   138  H          0.18595200       0.29479500       0.03105400
   139  H          0.90051200       0.83002100       0.02498800
   140  H          0.09948800       0.33002100       0.97501200
   141  C          0.79085000       0.53178000       0.01815150
   142  C          0.20915000       0.03178000       0.98184850
   143  H          0.75909500       0.45296000       0.98612000
   144  H          0.24090500       0.95296000       0.01388000
   145  H          0.88959600       0.47219700       0.03208200
   146  H          0.11040400       0.97219700       0.96791800
