data_QOSLUH
_symmetry_space_group_name_H-M    'P1'
_symmetry_Int_Tables_number       1
loop_
_symmetry_equiv_pos_site_id
_symmetry_equiv_pos_as_xyz
1 x,y,z
_cell_length_a                   14.1543
_cell_length_b                   9.192518
_cell_length_c                   17.3074
_cell_angle_alpha                90.0
_cell_angle_beta                 100.423
_cell_angle_gamma                90.0
loop_
_atom_site_label
_atom_site_type_symbol
_atom_site_fract_x
_atom_site_fract_y
_atom_site_fract_z
     1  C          0.70912110       0.57385150       0.23972800
     2  C          0.29087890       0.07385150       0.26027200
     3  C          0.29087890       0.42614850       0.76027200
     4  C          0.70912110       0.92614850       0.73972800
     5  C          0.67752110       0.60519160       0.09282800
     6  C          0.32247890       0.10519160       0.40717200
     7  C          0.32247890       0.39480840       0.90717200
     8  C          0.67752110       0.89480840       0.59282800
     9  C          0.70823100       0.66538160       0.16808800
    10  C          0.29176900       0.16538160       0.33191200
    11  C          0.29176900       0.33461840       0.83191200
    12  C          0.70823100       0.83461840       0.66808800
    13  C          0.62800110       0.56866150       0.27609800
    14  C          0.37199890       0.06866150       0.22390200
    15  C          0.37199890       0.43133850       0.72390200
    16  C          0.62800110       0.93133850       0.77609800
    17  C          0.73954100       0.81104160       0.17656800
    18  C          0.26045900       0.31104160       0.32343200
    19  C          0.26045900       0.18895840       0.82343200
    20  C          0.73954100       0.68895840       0.67656800
    21  C          0.62906110       0.47733150       0.34342800
    22  C          0.37093890       0.97733150       0.15657200
    23  C          0.37093890       0.52266850       0.65657200
    24  C          0.62906110       0.02266850       0.84342800
    25  C          0.79279110       0.49470150       0.27090800
    26  C          0.20720890      -0.00529850       0.22909200
    27  C          0.20720890       0.50529850       0.72909200
    28  C          0.79279110       0.00529850       0.77090800
    29  C          0.74427110       0.89644160       0.10813900
    30  C          0.25572890       0.39644160       0.39186100
    31  C          0.25572890       0.10355840       0.89186100
    32  C          0.74427110       0.60355840       0.60813900
    33  C          0.71116120       0.39644160       0.37201800
    34  C          0.28883880       0.89644160       0.12798200
    35  C          0.28883880       0.60355840       0.62798200
    36  C          0.71116120       0.10355840       0.87201800
    37  H          0.71080000       0.33340000       0.41550000
    38  H          0.28920000       0.83340000       0.08450000
    39  H          0.28920000       0.66660000       0.58450000
    40  H          0.71080000       0.16660000       0.91550000
    41  C          0.79371120       0.40491150       0.33904800
    42  C          0.20628880       0.90491150       0.16095200
    43  C          0.20628880       0.59508850       0.66095200
    44  C          0.79371120       0.09508850       0.83904800
    45  C          0.54401110       0.65449170       0.24886900
    46  C          0.45598890       0.15449170       0.25113100
    47  C          0.45598890       0.34550830       0.75113100
    48  C          0.54401110       0.84550830       0.74886900
    49  H          0.54180000       0.71460000       0.20390000
    50  H          0.45820000       0.21460000       0.29610000
    51  H          0.45820000       0.28540000       0.79610000
    52  H          0.54180000       0.78540000       0.70390000
    53  C          0.67894110       0.69332180       0.02456800
    54  C          0.32105890       0.19332180       0.47543200
    55  C          0.32105890       0.30667820       0.97543200
    56  C          0.67894110       0.80667820       0.52456800
    57  C          0.76630110       0.87814170       0.25171900
    58  C          0.23369890       0.37814170       0.24828100
    59  C          0.23369890       0.12185830       0.74828100
    60  C          0.76630110       0.62185830       0.75171900
    61  H          0.76400000       0.82310000       0.29780000
    62  H          0.23600000       0.32310000       0.20220000
    63  H          0.23600000       0.17690000       0.70220000
    64  H          0.76400000       0.67690000       0.79780000
    65  C          0.87818120       0.50169170       0.23793100
    66  C          0.12181880       0.00169170       0.26206900
    67  C          0.12181880       0.49830830       0.76206900
    68  C          0.87818120      -0.00169170       0.73793100
    69  H          0.87910000       0.55950000       0.19260000
    70  H          0.12090000       0.05950000       0.30740000
    71  H          0.12090000       0.44050000       0.80740000
    72  H          0.87910000       0.94050000       0.69260000
    73  C          0.54599130       0.47721180       0.37996900
    74  C          0.45400870       0.97721180       0.12003100
    75  C          0.45400870       0.52278820       0.62003100
    76  C          0.54599130       0.02278820       0.87996900
    77  H          0.54500000       0.41670000       0.42430000
    78  H          0.45500000       0.91670000       0.07570000
    79  H          0.45500000       0.58330000       0.57570000
    80  H          0.54500000       0.08330000       0.92430000
    81  C          0.87992130       0.32892170       0.37081100
    82  C          0.12007870       0.82892170       0.12918900
    83  C          0.12007870       0.67107830       0.62918900
    84  C          0.87992130       0.17107830       0.87081100
    85  H          0.88140000       0.26940000       0.41590000
    86  H          0.11860000       0.76940000       0.08410000
    87  H          0.11860000       0.73060000       0.58410000
    88  H          0.88140000       0.23060000       0.91590000
    89  C          0.64481120       0.45928180       0.08173900
    90  C          0.35518880       0.95928180       0.41826100
    91  C          0.35518880       0.54071820       0.91826100
    92  C          0.64481120       0.04071820       0.58173900
    93  H          0.64380000       0.39900000       0.12620000
    94  H          0.35620000       0.89900000       0.37380000
    95  H          0.35620000       0.60100000       0.87380000
    96  H          0.64380000       0.10100000       0.62620000
    97  C          0.46773120       0.65119190       0.28618100
    98  C          0.53226880       0.15119190       0.21381900
    99  C          0.53226880       0.34880810       0.71381900
   100  C          0.46773120       0.84880810       0.78618100
   101  H          0.41300000       0.70970000       0.26750000
   102  H          0.58700000       0.20970000       0.23250000
   103  H          0.58700000       0.29030000       0.73250000
   104  H          0.41300000       0.79030000       0.76750000
   105  C          0.46875130       0.56192000       0.35245100
   106  C          0.53124870       0.06192000       0.14754900
   107  C          0.53124870       0.43808000       0.64754900
   108  C          0.46875130       0.93808000       0.85245100
   109  H          0.41480000       0.56100000       0.37810000
   110  H          0.58520000       0.06100000       0.12190000
   111  H          0.58520000       0.43900000       0.62190000
   112  H          0.41480000       0.93900000       0.87810000
   113  C          0.71377110       0.83559180       0.03426900
   114  C          0.28622890       0.33559180       0.46573100
   115  C          0.28622890       0.16440820       0.96573100
   116  C          0.71377110       0.66440820       0.53426900
   117  H          0.71670000       0.89260000       0.98900000
   118  H          0.28330000       0.39260000       0.51100000
   119  H          0.28330000       0.10740000       0.01100000
   120  H          0.71670000       0.60740000       0.48900000
   121  C          0.61500140       0.40492000       0.00849100
   122  C          0.38499860       0.90492000       0.49150900
   123  C          0.38499860       0.59508000       0.99150900
   124  C          0.61500140       0.09508000       0.50849100
   125  H          0.59310000       0.30720000       0.00230000
   126  H          0.40690000       0.80720000       0.49770000
   127  H          0.40690000       0.69280000      -0.00230000
   128  H          0.59310000       0.19280000       0.50230000
   129  C          0.95901140       0.33972000       0.33840110
   130  C          0.04098860       0.83972000       0.16159890
   131  C          0.04098860       0.66028000       0.66159890
   132  C          0.95901140       0.16028000       0.83840110
   133  H          0.01570000       0.28890000       0.36100000
   134  H          0.98430000       0.78890000       0.13900000
   135  H          0.98430000       0.71110000       0.63900000
   136  H          0.01570000       0.21110000       0.86100000
   137  C          0.64668130       0.63172000       0.94891100
   138  C          0.35331870       0.13172000       0.55108900
   139  C          0.35331870       0.36828000       0.05108900
   140  C          0.64668130       0.86828000       0.44891100
   141  H          0.64660000       0.68930000       0.90330000
   142  H          0.35340000       0.18930000       0.59670000
   143  H          0.35340000       0.31070000       0.09670000
   144  H          0.64660000       0.81070000       0.40330000
   145  C          0.95826130       0.42655190       0.27070110
   146  C          0.04173870       0.92655190       0.22929890
   147  C          0.04173870       0.57344810       0.72929890
   148  C          0.95826130       0.07344810       0.77070110
   149  H          0.01440000       0.43240000       0.24790000
   150  H          0.98560000       0.93240000       0.25210000
   151  H          0.98560000       0.56760000       0.75210000
   152  H          0.01440000       0.06760000       0.74790000
   153  C          0.77755120       0.04316180       0.11880110
   154  C          0.22244880       0.54316180       0.38119890
   155  C          0.22244880       0.95683820       0.88119890
   156  C          0.77755120       0.45683820       0.61880110
   157  H          0.78290000       0.10030000       0.07400000
   158  H          0.21710000       0.60030000       0.42600000
   159  H          0.21710000       0.89970000       0.92600000
   160  H          0.78290000       0.39970000       0.57400000
   161  C          0.79502130       0.01938180       0.25845110
   162  C          0.20497870       0.51938180       0.24154890
   163  C          0.20497870       0.98061820       0.74154890
   164  C          0.79502130       0.48061820       0.75845110
   165  H          0.81080000       0.06260000       0.30900000
   166  H          0.18920000       0.56260000       0.19100000
   167  H          0.18920000       0.93740000       0.69100000
   168  H          0.81080000       0.43740000       0.80900000
   169  C          0.80163130       0.10245180       0.19108120
   170  C          0.19836870       0.60245180       0.30891880
   171  C          0.19836870       0.89754820       0.80891880
   172  C          0.80163130       0.39754820       0.69108120
   173  H          0.82310000       0.20050000       0.19660000
   174  H          0.17690000       0.70050000       0.30340000
   175  H          0.17690000       0.79950000       0.80340000
   176  H          0.82310000       0.29950000       0.69660000
   177  C          0.61616140       0.49212000       0.94123900
   178  C          0.38383860      -0.00788000       0.55876100
   179  C          0.38383860       0.50788000       0.05876100
   180  C          0.61616140       0.00788000       0.44123900
   181  H          0.59540000       0.45230000       0.89030000
   182  H          0.40460000       0.95230000       0.60970000
   183  H          0.40460000       0.54770000       0.10970000
   184  H          0.59540000       0.04770000       0.39030000
   185  C          0.01848160       0.13542000       0.53692100
   186  C          0.98151840       0.63542000       0.96307900
   187  C          0.98151840       0.86458000       0.46307900
   188  C          0.01848160       0.36458000       0.03692100
   189  C          0.93389160       0.06362000       0.53747110
   190  C          0.06610840       0.56362000       0.96252890
   191  C          0.06610840       0.93638000       0.46252890
   192  C          0.93389160       0.43638000       0.03747110
   193  H          0.88680000       0.10580000       0.56330000
   194  H          0.11320000       0.60580000       0.93670000
   195  H          0.11320000       0.89420000       0.43670000
   196  H          0.88680000       0.39420000       0.06330000
   197  C          0.08369140       0.06932000       0.49910130
   198  C          0.91630860       0.56932000       0.00089870
   199  C          0.91630860       0.93068000       0.50089870
   200  C          0.08369140       0.43068000      -0.00089870
   201  H          0.14310000       0.11660000       0.49800000
   202  H          0.85690000       0.61660000       0.00200000
   203  H          0.85690000       0.88340000       0.50200000
   204  H          0.14310000       0.38340000      -0.00200000
   205  C          0.03763000       0.28282000       0.57532160
   206  C          0.96237000       0.78282000       0.92467840
   207  C          0.96237000       0.71718000       0.42467840
   208  C          0.03763000       0.21718000       0.07532160
   209  H         -0.00680000       0.35440000       0.54680000
   210  H          0.00680000       0.85440000       0.95320000
   211  H          0.00680000       0.64560000       0.45320000
   212  H         -0.00680000       0.14560000       0.04680000
   213  H          0.10390000       0.31210000       0.57400000
   214  H          0.89610000       0.81210000       0.92600000
   215  H          0.89610000       0.68790000       0.42600000
   216  H          0.10390000       0.18790000       0.07400000
   217  H          0.02830000       0.27730000       0.63000000
   218  H          0.97170000       0.77730000       0.87000000
   219  H          0.97170000       0.72270000       0.37000000
   220  H          0.02830000       0.22270000       0.13000000
