data_QOWHES
_symmetry_space_group_name_H-M    'P1'
_symmetry_Int_Tables_number       1
loop_
_symmetry_equiv_pos_site_id
_symmetry_equiv_pos_as_xyz
1 x,y,z
_cell_length_a                   10.42636
_cell_length_b                   15.35929
_cell_length_c                   6.75414
_cell_angle_alpha                90.0
_cell_angle_beta                 93.4632
_cell_angle_gamma                90.0
loop_
_atom_site_label
_atom_site_type_symbol
_atom_site_fract_x
_atom_site_fract_y
_atom_site_fract_z
     1  F          0.36151100       0.13334700       0.33373170
     2  F          0.63848900       0.63334700       0.16626830
     3  F          0.63848900       0.86665300       0.66626830
     4  F          0.36151100       0.36665300       0.83373170
     5  F          0.26227100       0.97622300       0.32561170
     6  F          0.73772900       0.47622300       0.17438830
     7  F          0.73772900       0.02377700       0.67438830
     8  F          0.26227100       0.52377700       0.82561170
     9  O          0.53301120       0.23624800       0.54102000
    10  O          0.46698880       0.73624800       0.95898000
    11  O          0.46698880       0.76375200       0.45898000
    12  O          0.53301120       0.26375200       0.04102000
    13  H          0.57071500       0.28435700       0.53357100
    14  H          0.42928500       0.78435700       0.96642900
    15  H          0.42928500       0.71564300       0.46642900
    16  H          0.57071500       0.21564300       0.03357100
    17  O          0.72863130       0.18162900       0.49282000
    18  O          0.27136870       0.68162900       0.00718000
    19  O          0.27136870       0.81837100       0.50718000
    20  O          0.72863130       0.31837100      -0.00718000
    21  C          0.55310170       0.08492120       0.50673000
    22  C          0.44689830       0.58492120      -0.00673000
    23  C          0.44689830       0.91507880       0.49327000
    24  C          0.55310170       0.41507880       0.00673000
    25  C          0.38057170       0.98621880       0.41343000
    26  C          0.61942830       0.48621880       0.08657000
    27  C          0.61942830       0.01378120       0.58657000
    28  C          0.38057170       0.51378120       0.91343000
    29  C          0.43151170       0.06892120       0.41823000
    30  C          0.56848830       0.56892120       0.08177000
    31  C          0.56848830       0.93107880       0.58177000
    32  C          0.43151170       0.43107880       0.91823000
    33  C          0.61389180       0.17346120       0.51303000
    34  C          0.38610820       0.67346120      -0.01303000
    35  C          0.38610820       0.82653880       0.48697000
    36  C          0.61389180       0.32653880       0.01303000
    37  O          0.62492120       0.38885800       0.52432000
    38  O          0.37507880       0.88885800       0.97568000
    39  O          0.37507880       0.61114200       0.47568000
    40  O          0.62492120       0.11114200       0.02432000
    41  N          0.83084150       0.34703100       0.59112000
    42  N          0.16915850       0.84703100       0.90888000
    43  N          0.16915850       0.65296900       0.40888000
    44  N          0.83084150       0.15296900       0.09112000
    45  H          0.80902500       0.29565100       0.54220400
    46  H          0.19097500       0.79565100       0.95779600
    47  H          0.19097500       0.70434900       0.45779600
    48  H          0.80902500       0.20434900       0.04220400
    49  N          0.95526150       0.35550110       0.66702000
    50  N          0.04473850       0.85550110       0.83298000
    51  N          0.04473850       0.64449890       0.33298000
    52  N          0.95526150       0.14449890       0.16702000
    53  C          0.73819180       0.40832120       0.58283000
    54  C          0.26180820       0.90832120       0.91717000
    55  C          0.26180820       0.59167880       0.41717000
    56  C          0.73819180       0.09167880       0.08283000
    57  C          0.90555180       0.50719120       0.71863000
    58  C          0.09444820       0.00719120       0.78137000
    59  C          0.09444820       0.49280880       0.28137000
    60  C          0.90555180      -0.00719120       0.21863000
    61  C          0.77766180       0.49532120       0.64373000
    62  C          0.22233820      -0.00467880       0.85627000
    63  C          0.22233820       0.50467880       0.35627000
    64  C          0.77766180       0.00467880       0.14373000
    65  C          0.69245180       0.56577120       0.62873000
    66  C          0.30754820       0.06577120       0.87127000
    67  C          0.30754820       0.43422880       0.37127000
    68  C          0.69245180       0.93422880       0.12873000
    69  H          0.60629300       0.55759700       0.57809700
    70  H          0.39370700       0.05759700       0.92190300
    71  H          0.39370700       0.44240300       0.42190300
    72  H          0.60629300       0.94240300       0.07809700
    73  C          0.94622190       0.59076130       0.77983000
    74  C          0.05377810       0.09076130       0.72017000
    75  C          0.05377810       0.40923870       0.22017000
    76  C          0.94622190       0.90923870       0.27983000
    77  H          0.03196800       0.59974300       0.83145600
    78  H          0.96803200       0.09974300       0.66854400
    79  H          0.96803200       0.40025700       0.16854400
    80  H          0.03196800       0.90025700       0.33145600
    81  C         -0.01176820       0.43258130       0.72783000
    82  C          0.01176820       0.93258130       0.77217000
    83  C          0.01176820       0.56741870       0.27217000
    84  C         -0.01176820       0.06741870       0.22783000
    85  H          0.07355200       0.44034800       0.78247600
    86  H          0.92644800       0.94034800       0.71752400
    87  H          0.92644800       0.55965200       0.21752400
    88  H          0.07355200       0.05965200       0.28247600
    89  C          0.86172000       0.65939130       0.76463000
    90  C          0.13828000       0.15939130       0.73537000
    91  C          0.13828000       0.34060870       0.23537000
    92  C          0.86172000       0.84060870       0.26463000
    93  H          0.88950800       0.71574100       0.80626100
    94  H          0.11049200       0.21574100       0.69373900
    95  H          0.11049200       0.28425900       0.19373900
    96  H          0.88950800       0.78425900       0.30626100
    97  C          0.73512000       0.64722130       0.68843000
    98  C          0.26488000       0.14722130       0.81157000
    99  C          0.26488000       0.35277870       0.31157000
   100  C          0.73512000       0.85277870       0.18843000
   101  H          0.67808600       0.69546500       0.67768700
   102  H          0.32191400       0.19546500       0.82231300
   103  H          0.32191400       0.30453500       0.32231300
   104  H          0.67808600       0.80453500       0.17768700
