data_QOWSOK
_symmetry_space_group_name_H-M    'P1'
_symmetry_Int_Tables_number       1
loop_
_symmetry_equiv_pos_site_id
_symmetry_equiv_pos_as_xyz
1 x,y,z
_cell_length_a                   13.14598
_cell_length_b                   12.42928
_cell_length_c                   18.882412
_cell_angle_alpha                90.0
_cell_angle_beta                 90.0
_cell_angle_gamma                90.0
loop_
_atom_site_label
_atom_site_type_symbol
_atom_site_fract_x
_atom_site_fract_y
_atom_site_fract_z
     1  S          0.07967400       0.01685400       0.15676300
     2  S          0.42032600       0.98314600       0.65676300
     3  S          0.57967400       0.48314600       0.84323700
     4  S          0.92032600       0.51685400       0.34323700
     5  S          0.92032600       0.98314600       0.84323700
     6  S          0.57967400       0.01685400       0.34323700
     7  S          0.42032600       0.51685400       0.15676300
     8  S          0.07967400       0.48314600       0.65676300
     9  O          0.17939110       0.96604880       0.15925800
    10  O          0.32060890       0.03395120       0.65925800
    11  O          0.67939110       0.53395120       0.84074200
    12  O          0.82060890       0.46604880       0.34074200
    13  O          0.82060890       0.03395120       0.84074200
    14  O          0.67939110       0.96604880       0.34074200
    15  O          0.32060890       0.46604880       0.15925800
    16  O          0.17939110       0.53395120       0.65925800
    17  C          0.03595150       0.00637160       0.06833110
    18  C          0.46404850      -0.00637160       0.56833110
    19  C          0.53595150       0.49362840       0.93166890
    20  C          0.96404850       0.50637160       0.43166890
    21  C          0.96404850      -0.00637160       0.93166890
    22  C          0.53595150       0.00637160       0.43166890
    23  C          0.46404850       0.50637160       0.06833110
    24  C          0.03595150       0.49362840       0.56833110
    25  O          0.00448120       0.96170890       0.20033800
    26  O          0.49551880       0.03829110       0.70033800
    27  O          0.50448120       0.53829110       0.79966200
    28  O         -0.00448120       0.46170890       0.29966200
    29  O         -0.00448120       0.03829110       0.79966200
    30  O          0.50448120       0.96170890       0.29966200
    31  O          0.49551880       0.46170890       0.20033800
    32  O          0.00448120       0.53829110       0.70033800
    33  C          0.09343160       0.95519820       0.01744120
    34  C          0.40656840       0.04480180       0.51744120
    35  C          0.59343160       0.54480180       0.98255880
    36  C          0.90656840       0.45519820       0.48255880
    37  C          0.90656840       0.04480180       0.98255880
    38  C          0.59343160       0.95519820       0.48255880
    39  C          0.40656840       0.45519820       0.01744120
    40  C          0.09343160       0.54480180       0.51744120
    41  H          0.15730000       0.92460000       0.02950000
    42  H          0.34270000       0.07540000       0.52950000
    43  H          0.65730000       0.57540000       0.97050000
    44  H          0.84270000       0.42460000       0.47050000
    45  H          0.84270000       0.07540000       0.97050000
    46  H          0.65730000       0.92460000       0.47050000
    47  H          0.34270000       0.42460000       0.02950000
    48  H          0.15730000       0.57540000       0.52950000
    49  O          0.08488110       0.13165120       0.17206800
    50  O          0.41511890       0.86834880       0.67206800
    51  O          0.58488110       0.36834880       0.82793200
    52  O          0.91511890       0.63165120       0.32793200
    53  O          0.91511890       0.86834880       0.82793200
    54  O          0.58488110       0.13165120       0.32793200
    55  O          0.41511890       0.63165120       0.17206800
    56  O          0.08488110       0.36834880       0.67206800
    57  C          0.94246830       0.05127190       0.05124120
    58  C          0.55753170       0.94872810       0.55124120
    59  C          0.44246830       0.44872810       0.94875880
    60  C          0.05753170       0.55127190       0.44875880
    61  C          0.05753170       0.94872810       0.94875880
    62  C          0.44246830       0.05127190       0.44875880
    63  C          0.55753170       0.55127190       0.05124120
    64  C          0.94246830       0.44872810       0.55124120
    65  H          0.90330000       0.08640000       0.08660000
    66  H          0.59670000       0.91360000       0.58660000
    67  H          0.40330000       0.41360000       0.91340000
    68  H          0.09670000       0.58640000       0.41340000
    69  H          0.09670000       0.91360000       0.91340000
    70  H          0.40330000       0.08640000       0.41340000
    71  H          0.59670000       0.58640000       0.08660000
    72  H          0.90330000       0.41360000       0.58660000
    73  N          0.21809150       0.74072850       0.18429110
    74  N          0.28190850       0.25927150       0.68429110
    75  N          0.71809150       0.75927150       0.81570890
    76  N          0.78190850       0.24072850       0.31570890
    77  N          0.78190850       0.25927150       0.81570890
    78  N          0.71809150       0.74072850       0.31570890
    79  N          0.28190850       0.24072850       0.18429110
    80  N          0.21809150       0.75927150       0.68429110
    81  H          0.21110000       0.80970000       0.17510000
    82  H          0.28890000       0.19030000       0.67510000
    83  H          0.71110000       0.69030000       0.82490000
    84  H          0.78890000       0.30970000       0.32490000
    85  H          0.78890000       0.19030000       0.82490000
    86  H          0.71110000       0.80970000       0.32490000
    87  H          0.28890000       0.30970000       0.17510000
    88  H          0.21110000       0.69030000       0.67510000
    89  H          0.27320000       0.70640000       0.17050000
    90  H          0.22680000       0.29360000       0.67050000
    91  H          0.77320000       0.79360000       0.82950000
    92  H          0.72680000       0.20640000       0.32950000
    93  H          0.72680000       0.29360000       0.82950000
    94  H          0.77320000       0.70640000       0.32950000
    95  H          0.22680000       0.20640000       0.17050000
    96  H          0.27320000       0.79360000       0.67050000
    97  N          0.06288140       0.73937850       0.23975100
    98  N          0.43711860       0.26062150       0.73975100
    99  N          0.56288140       0.76062150       0.76024900
   100  N          0.93711860       0.23937850       0.26024900
   101  N          0.93711860       0.26062150       0.76024900
   102  N          0.56288140       0.73937850       0.26024900
   103  N          0.43711860       0.23937850       0.23975100
   104  N          0.06288140       0.76062150       0.73975100
   105  H          0.05540000       0.80840000       0.23070000
   106  H          0.44460000       0.19160000       0.73070000
   107  H          0.55540000       0.69160000       0.76930000
   108  H          0.94460000       0.30840000       0.26930000
   109  H          0.94460000       0.19160000       0.76930000
   110  H          0.55540000       0.80840000       0.26930000
   111  H          0.44460000       0.30840000       0.23070000
   112  H          0.05540000       0.69160000       0.73070000
   113  H          0.01510000       0.70420000       0.26270000
   114  H          0.48490000       0.29580000       0.76270000
   115  H          0.51510000       0.79580000       0.73730000
   116  H          0.98490000       0.20420000       0.23730000
   117  H          0.98490000       0.29580000       0.73730000
   118  H          0.51510000       0.70420000       0.23730000
   119  H          0.48490000       0.20420000       0.26270000
   120  H          0.01510000       0.79580000       0.76270000
   121  N          0.15744150       0.58514860       0.23298110
   122  N          0.34255850       0.41485140       0.73298110
   123  N          0.65744150       0.91485140       0.76701890
   124  N          0.84255850       0.08514860       0.26701890
   125  N          0.84255850       0.41485140       0.76701890
   126  N          0.65744150       0.58514860       0.26701890
   127  N          0.34255850       0.08514860       0.23298110
   128  N          0.15744150       0.91485140       0.73298110
   129  H          0.10990000       0.55020000       0.25630000
   130  H          0.39010000       0.44980000       0.75630000
   131  H          0.60990000       0.94980000       0.74370000
   132  H          0.89010000       0.05020000       0.24370000
   133  H          0.89010000       0.44980000       0.74370000
   134  H          0.60990000       0.55020000       0.24370000
   135  H          0.39010000       0.05020000       0.25630000
   136  H          0.10990000       0.94980000       0.75630000
   137  H          0.21270000       0.55130000       0.21910000
   138  H          0.28730000       0.44870000       0.71910000
   139  H          0.71270000       0.94870000       0.78090000
   140  H          0.78730000       0.05130000       0.28090000
   141  H          0.78730000       0.44870000       0.78090000
   142  H          0.71270000       0.55130000       0.28090000
   143  H          0.28730000       0.05130000       0.21910000
   144  H          0.21270000       0.94870000       0.71910000
   145  C          0.14588170       0.68864830       0.21882120
   146  C          0.35411830       0.31135170       0.71882120
   147  C          0.64588170       0.81135170       0.78117880
   148  C          0.85411830       0.18864830       0.28117880
   149  C          0.85411830       0.31135170       0.78117880
   150  C          0.64588170       0.68864830       0.28117880
   151  C          0.35411830       0.18864830       0.21882120
   152  C          0.14588170       0.81135170       0.71882120
   153  C          0.14722000       0.02993000       0.41793190
   154  C          0.35278000       0.97007000       0.91793190
   155  C          0.64722000       0.47007000       0.58206810
   156  C          0.85278000       0.52993000       0.08206810
   157  C          0.85278000       0.97007000       0.58206810
   158  C          0.64722000       0.02993000       0.08206810
   159  C          0.35278000       0.52993000       0.41793190
   160  C          0.14722000       0.47007000       0.91793190
   161  C          0.13772000       0.01813000       0.49034180
   162  C          0.36228000       0.98187000       0.99034180
   163  C          0.63772000       0.48187000       0.50965820
   164  C          0.86228000       0.51813000       0.00965820
   165  C          0.86228000       0.98187000       0.50965820
   166  C          0.63772000       0.01813000       0.00965820
   167  C          0.36228000       0.51813000       0.49034180
   168  C          0.13772000       0.48187000       0.99034180
   169  C          0.12023000       0.10944000       0.53113000
   170  C          0.37977000       0.89056000       0.03113000
   171  C          0.62023000       0.39056000       0.46887000
   172  C          0.87977000       0.60944000       0.96887000
   173  C          0.87977000       0.89056000       0.46887000
   174  C          0.62023000       0.10944000       0.96887000
   175  C          0.37977000       0.60944000       0.53113000
   176  C          0.12023000       0.39056000       0.03113000
   177  H          0.11370000       0.10250000       0.58100000
   178  H          0.38630000       0.89750000       0.08100000
   179  H          0.61370000       0.39750000       0.41900000
   180  H          0.88630000       0.60250000       0.91900000
   181  H          0.88630000       0.89750000       0.41900000
   182  H          0.61370000       0.10250000       0.91900000
   183  H          0.38630000       0.60250000       0.58100000
   184  H          0.11370000       0.39750000       0.08100000
   185  C          0.11234000       0.20795000       0.50115000
   186  C          0.38766000       0.79205000       0.00115000
   187  C          0.61234000       0.29205000       0.49885000
   188  C          0.88766000       0.70795000      -0.00115000
   189  C          0.88766000       0.79205000       0.49885000
   190  C          0.61234000       0.20795000      -0.00115000
   191  C          0.38766000       0.70795000       0.50115000
   192  C          0.11234000       0.29205000       0.00115000
   193  H          0.10140000       0.26930000       0.53000000
   194  H          0.39860000       0.73070000       0.03000000
   195  H          0.60140000       0.23070000       0.47000000
   196  H          0.89860000       0.76930000       0.97000000
   197  H          0.89860000       0.73070000       0.47000000
   198  H          0.60140000       0.26930000       0.97000000
   199  H          0.39860000       0.76930000       0.53000000
   200  H          0.10140000       0.23070000       0.03000000
   201  C          0.12014000       0.21944000       0.42785000
   202  C          0.37986000       0.78056000       0.92785000
   203  C          0.62014000       0.28056000       0.57215000
   204  C          0.87986000       0.71944000       0.07215000
   205  C          0.87986000       0.78056000       0.57215000
   206  C          0.62014000       0.21944000       0.07215000
   207  C          0.37986000       0.71944000       0.42785000
   208  C          0.12014000       0.28056000       0.92785000
   209  H          0.11250000       0.28820000       0.40650000
   210  H          0.38750000       0.71180000       0.90650000
   211  H          0.61250000       0.21180000       0.59350000
   212  H          0.88750000       0.78820000       0.09350000
   213  H          0.88750000       0.71180000       0.59350000
   214  H          0.61250000       0.28820000       0.09350000
   215  H          0.38750000       0.78820000       0.40650000
   216  H          0.11250000       0.21180000       0.90650000
   217  C          0.13873000       0.13074000       0.38683000
   218  C          0.36127000       0.86926000       0.88683000
   219  C          0.63873000       0.36926000       0.61317000
   220  C          0.86127000       0.63074000       0.11317000
   221  C          0.86127000       0.86926000       0.61317000
   222  C          0.63873000       0.13074000       0.11317000
   223  C          0.36127000       0.63074000       0.38683000
   224  C          0.13873000       0.36926000       0.88683000
   225  H          0.14590000       0.13810000       0.33700000
   226  H          0.35410000       0.86190000       0.83700000
   227  H          0.64590000       0.36190000       0.66300000
   228  H          0.85410000       0.63810000       0.16300000
   229  H          0.85410000       0.86190000       0.66300000
   230  H          0.64590000       0.13810000       0.16300000
   231  H          0.35410000       0.63810000       0.33700000
   232  H          0.14590000       0.36190000       0.83700000
   233  C          0.16464000       0.93536000       0.37312000
   234  C          0.33536000       0.06464000       0.87312000
   235  C          0.66464000       0.56464000       0.62688000
   236  C          0.83536000       0.43536000       0.12688000
   237  C          0.83536000       0.06464000       0.62688000
   238  C          0.66464000       0.93536000       0.12688000
   239  C          0.33536000       0.43536000       0.37312000
   240  C          0.16464000       0.56464000       0.87312000
   241  H          0.23060000       0.90340000       0.38490000
   242  H          0.26940000       0.09660000       0.88490000
   243  H          0.73060000       0.59660000       0.61510000
   244  H          0.76940000       0.40340000       0.11510000
   245  H          0.76940000       0.09660000       0.61510000
   246  H          0.73060000       0.90340000       0.11510000
   247  H          0.26940000       0.40340000       0.38490000
   248  H          0.23060000       0.59660000       0.88490000
   249  H          0.16420000       0.95720000       0.32320000
   250  H          0.33580000       0.04280000       0.82320000
   251  H          0.66420000       0.54280000       0.67680000
   252  H          0.83580000       0.45720000       0.17680000
   253  H          0.83580000       0.04280000       0.67680000
   254  H          0.66420000       0.95720000       0.17680000
   255  H          0.33580000       0.45720000       0.32320000
   256  H          0.16420000       0.54280000       0.82320000
   257  H          0.11060000       0.88250000       0.38130000
   258  H          0.38940000       0.11750000       0.88130000
   259  H          0.61060000       0.61750000       0.61870000
   260  H          0.88940000       0.38250000       0.11870000
   261  H          0.88940000       0.11750000       0.61870000
   262  H          0.61060000       0.88250000       0.11870000
   263  H          0.38940000       0.38250000       0.38130000
   264  H          0.11060000       0.61750000       0.88130000
   265  C          0.14753000       0.91247000       0.52502000
   266  C          0.35247000       0.08753000       0.02502000
   267  C          0.64753000       0.58753000       0.47498000
   268  C          0.85247000       0.41247000       0.97498000
   269  C          0.85247000       0.08753000       0.47498000
   270  C          0.64753000       0.91247000       0.97498000
   271  C          0.35247000       0.41247000       0.52502000
   272  C          0.14753000       0.58753000       0.02502000
   273  H          0.11340000       0.85770000       0.49620000
   274  H          0.38660000       0.14230000      -0.00380000
   275  H          0.61340000       0.64230000       0.50380000
   276  H          0.88660000       0.35770000       0.00380000
   277  H          0.88660000       0.14230000       0.50380000
   278  H          0.61340000       0.85770000       0.00380000
   279  H          0.38660000       0.35770000       0.49620000
   280  H          0.11340000       0.64230000      -0.00380000
   281  H          0.11590000       0.91530000       0.57200000
   282  H          0.38410000       0.08470000       0.07200000
   283  H          0.61590000       0.58470000       0.42800000
   284  H          0.88410000       0.41530000       0.92800000
   285  H          0.88410000       0.08470000       0.42800000
   286  H          0.61590000       0.91530000       0.92800000
   287  H          0.38410000       0.41530000       0.57200000
   288  H          0.11590000       0.58470000       0.07200000
   289  H          0.21970000       0.89410000       0.52990000
   290  H          0.28030000       0.10590000       0.02990000
   291  H          0.71970000       0.60590000       0.47010000
   292  H          0.78030000       0.39410000       0.97010000
   293  H          0.78030000       0.10590000       0.47010000
   294  H          0.71970000       0.89410000       0.97010000
   295  H          0.28030000       0.39410000       0.52990000
   296  H          0.21970000       0.60590000       0.02990000
