data_QOWSIE
_symmetry_space_group_name_H-M    'P1'
_symmetry_Int_Tables_number       1
loop_
_symmetry_equiv_pos_site_id
_symmetry_equiv_pos_as_xyz
1 x,y,z
_cell_length_a                   13.42859
_cell_length_b                   12.59899
_cell_length_c                   17.785012
_cell_angle_alpha                90.0
_cell_angle_beta                 90.0
_cell_angle_gamma                90.0
loop_
_atom_site_label
_atom_site_type_symbol
_atom_site_fract_x
_atom_site_fract_y
_atom_site_fract_z
     1  S          0.09197300       0.54433400       0.34040200
     2  S          0.40802700       0.45566600       0.84040200
     3  S          0.59197300       0.95566600       0.65959800
     4  S          0.90802700       0.04433400       0.15959800
     5  S          0.90802700       0.45566600       0.65959800
     6  S          0.59197300       0.54433400       0.15959800
     7  S          0.40802700       0.04433400       0.34040200
     8  S          0.09197300       0.95566600       0.84040200
     9  O          0.09526900       0.65939100       0.33099700
    10  O          0.40473100       0.34060900       0.83099700
    11  O          0.59526900       0.84060900       0.66900300
    12  O          0.90473100       0.15939100       0.16900300
    13  O          0.90473100       0.34060900       0.66900300
    14  O          0.59526900       0.65939100       0.16900300
    15  O          0.40473100       0.15939100       0.33099700
    16  O          0.09526900       0.84060900       0.83099700
    17  O          0.19043900       0.49603100       0.33841700
    18  O          0.30956100       0.50396900       0.83841700
    19  O          0.69043900       0.00396900       0.66158300
    20  O          0.80956100      -0.00396900       0.16158300
    21  O          0.80956100       0.50396900       0.66158300
    22  O          0.69043900       0.49603100       0.16158300
    23  O          0.30956100      -0.00396900       0.33841700
    24  O          0.19043900       0.00396900       0.83841700
    25  C          0.08778140       0.44884150       0.47914110
    26  C          0.41221860       0.55115850       0.97914110
    27  C          0.58778140       0.05115850       0.52085890
    28  C          0.91221860       0.94884150       0.02085890
    29  C          0.91221860       0.55115850       0.52085890
    30  C          0.58778140       0.44884150       0.02085890
    31  C          0.41221860       0.94884150       0.47914110
    32  C          0.08778140       0.05115850       0.97914110
    33  H          0.14770000       0.41430000       0.46480000
    34  H          0.35230000       0.58570000       0.96480000
    35  H          0.64770000       0.08570000       0.53520000
    36  H          0.85230000       0.91430000       0.03520000
    37  H          0.85230000       0.58570000       0.53520000
    38  H          0.64770000       0.41430000       0.03520000
    39  H          0.35230000       0.91430000       0.46480000
    40  H          0.14770000       0.08570000       0.96480000
    41  O          0.02282900       0.49409100       0.28807700
    42  O          0.47717100       0.50590900       0.78807700
    43  O          0.52282900       0.00590900       0.71192300
    44  O          0.97717100      -0.00590900       0.21192300
    45  O          0.97717100       0.50590900       0.71192300
    46  O          0.52282900       0.49409100       0.21192300
    47  O          0.47717100      -0.00590900       0.28807700
    48  O          0.02282900       0.00590900       0.78807700
    49  C          0.04246130       0.52083130       0.43127100
    50  C          0.45753870       0.47916870       0.93127100
    51  C          0.54246130       0.97916870       0.56872900
    52  C          0.95753870       0.02083130       0.06872900
    53  C          0.95753870       0.47916870       0.56872900
    54  C          0.54246130       0.52083130       0.06872900
    55  C          0.45753870       0.02083130       0.43127100
    56  C          0.04246130       0.97916870       0.93127100
    57  C          0.95558860       0.57211150       0.45153110
    58  C          0.54441140       0.42788850       0.95153110
    59  C          0.45558860       0.92788850       0.54846890
    60  C          0.04441140       0.07211150       0.04846890
    61  C          0.04441140       0.42788850       0.54846890
    62  C          0.45558860       0.57211150       0.04846890
    63  C          0.54441140       0.07211150       0.45153110
    64  C          0.95558860       0.92788850       0.95153110
    65  H          0.92560000       0.62150000       0.41810000
    66  H          0.57440000       0.37850000       0.91810000
    67  H          0.42560000       0.87850000       0.58190000
    68  H          0.07440000       0.12150000       0.08190000
    69  H          0.07440000       0.37850000       0.58190000
    70  H          0.42560000       0.62150000       0.08190000
    71  H          0.57440000       0.12150000       0.41810000
    72  H          0.92560000       0.87850000       0.91810000
    73  N          0.85285880       0.61430120       0.23416100
    74  N          0.64714120       0.38569880       0.73416100
    75  N          0.35285880       0.88569880       0.76583900
    76  N          0.14714120       0.11430120       0.26583900
    77  N          0.14714120       0.38569880       0.76583900
    78  N          0.35285880       0.61430120       0.26583900
    79  N          0.64714120       0.11430120       0.23416100
    80  N          0.85285880       0.88569880       0.73416100
    81  H          0.79970000       0.57980000       0.21870000
    82  H          0.70030000       0.42020000       0.71870000
    83  H          0.29970000       0.92020000       0.78130000
    84  H          0.20030000       0.07980000       0.28130000
    85  H          0.20030000       0.42020000       0.78130000
    86  H          0.29970000       0.57980000       0.28130000
    87  H          0.70030000       0.07980000       0.21870000
    88  H          0.79970000       0.92020000       0.71870000
    89  H          0.90170000       0.57970000       0.25630000
    90  H          0.59830000       0.42030000       0.75630000
    91  H          0.40170000       0.92030000       0.74370000
    92  H          0.09830000       0.07970000       0.24370000
    93  H          0.09830000       0.42030000       0.74370000
    94  H          0.40170000       0.57970000       0.24370000
    95  H          0.59830000       0.07970000       0.25630000
    96  H          0.90170000       0.92030000       0.75630000
    97  N          0.78604890       0.77009130       0.19097100
    98  N          0.71395110       0.22990870       0.69097100
    99  N          0.28604890       0.72990870       0.80902900
   100  N          0.21395110       0.27009130       0.30902900
   101  N          0.21395110       0.22990870       0.80902900
   102  N          0.28604890       0.77009130       0.30902900
   103  N          0.71395110       0.27009130       0.19097100
   104  N          0.78604890       0.72990870       0.69097100
   105  H          0.79010000       0.83920000       0.18440000
   106  H          0.70990000       0.16080000       0.68440000
   107  H          0.29010000       0.66080000       0.81560000
   108  H          0.20990000       0.33920000       0.31560000
   109  H          0.20990000       0.16080000       0.81560000
   110  H          0.29010000       0.83920000       0.31560000
   111  H          0.70990000       0.33920000       0.18440000
   112  H          0.79010000       0.66080000       0.68440000
   113  H          0.73300000       0.73540000       0.17540000
   114  H          0.76700000       0.26460000       0.67540000
   115  H          0.23300000       0.76460000       0.82460000
   116  H          0.26700000       0.23540000       0.32460000
   117  H          0.26700000       0.26460000       0.82460000
   118  H          0.23300000       0.73540000       0.32460000
   119  H          0.76700000       0.23540000       0.17540000
   120  H          0.73300000       0.76460000       0.67540000
   121  C          0.85943870       0.71850150       0.22414100
   122  C          0.64056130       0.28149850       0.72414100
   123  C          0.35943870       0.78149850       0.77585900
   124  C          0.14056130       0.21850150       0.27585900
   125  C          0.14056130       0.28149850       0.77585900
   126  C          0.35943870       0.71850150       0.27585900
   127  C          0.64056130       0.21850150       0.22414100
   128  C          0.85943870       0.78149850       0.72414100
   129  N          0.93927880       0.76978120       0.24769100
   130  N          0.56072120       0.23021880       0.74769100
   131  N          0.43927880       0.73021880       0.75230900
   132  N          0.06072120       0.26978120       0.25230900
   133  N          0.06072120       0.23021880       0.75230900
   134  N          0.43927880       0.76978120       0.25230900
   135  N          0.56072120       0.26978120       0.24769100
   136  N          0.93927880       0.73021880       0.74769100
   137  H          0.94390000       0.83890000       0.24130000
   138  H          0.55610000       0.16110000       0.74130000
   139  H          0.44390000       0.66110000       0.75870000
   140  H          0.05610000       0.33890000       0.25870000
   141  H          0.05610000       0.16110000       0.75870000
   142  H          0.44390000       0.83890000       0.25870000
   143  H          0.55610000       0.33890000       0.24130000
   144  H          0.94390000       0.66110000       0.74130000
   145  H          0.98790000       0.73490000       0.26980000
   146  H          0.51210000       0.26510000       0.76980000
   147  H          0.48790000       0.76510000       0.73020000
   148  H          0.01210000       0.23490000       0.23020000
   149  H          0.01210000       0.26510000       0.73020000
   150  H          0.48790000       0.73490000       0.23020000
   151  H          0.51210000       0.23490000       0.26980000
   152  H          0.98790000       0.76510000       0.76980000
   153  C          0.85252850       0.19944180       0.42403120
   154  C          0.64747150       0.80055820       0.92403120
   155  C          0.35252850       0.30055820       0.57596880
   156  C          0.14747150       0.69944180       0.07596880
   157  C          0.14747150       0.80055820       0.57596880
   158  C          0.35252850       0.19944180       0.07596880
   159  C          0.64747150       0.69944180       0.42403120
   160  C          0.85252850       0.30055820       0.92403120
   161  C          0.85566830       0.10984190       0.37937120
   162  C          0.64433170       0.89015810       0.87937120
   163  C          0.35566830       0.39015810       0.62062880
   164  C          0.14433170       0.60984190       0.12062880
   165  C          0.14433170       0.89015810       0.62062880
   166  C          0.35566830       0.10984190       0.12062880
   167  C          0.64433170       0.60984190       0.37937120
   168  C          0.85566830       0.39015810       0.87937120
   169  H          0.85230000       0.11750000       0.32630000
   170  H          0.64770000       0.88250000       0.82630000
   171  H          0.35230000       0.38250000       0.67370000
   172  H          0.14770000       0.61750000       0.17370000
   173  H          0.14770000       0.88250000       0.67370000
   174  H          0.35230000       0.11750000       0.17370000
   175  H          0.64770000       0.61750000       0.32630000
   176  H          0.85230000       0.38250000       0.82630000
   177  C          0.86848850      -0.00633190       0.48713130
   178  C          0.63151150       0.00633190       0.98713130
   179  C          0.36848850       0.50633190       0.51286870
   180  C          0.13151150       0.49366810       0.01286870
   181  C          0.13151150       0.00633190       0.51286870
   182  C          0.36848850      -0.00633190       0.01286870
   183  C          0.63151150       0.49366810       0.48713130
   184  C          0.86848850       0.50633190       0.98713130
   185  C          0.85861840       0.18352000       0.50127120
   186  C          0.64138160       0.81648000       0.00127120
   187  C          0.35861840       0.31648000       0.49872880
   188  C          0.14138160       0.68352000      -0.00127120
   189  C          0.14138160       0.81648000       0.49872880
   190  C          0.35861840       0.18352000      -0.00127120
   191  C          0.64138160       0.68352000       0.50127120
   192  C          0.85861840       0.31648000       0.00127120
   193  H          0.85750000       0.24330000       0.53380000
   194  H          0.64250000       0.75670000       0.03380000
   195  H          0.35750000       0.25670000       0.46620000
   196  H          0.14250000       0.74330000       0.96620000
   197  H          0.14250000       0.75670000       0.46620000
   198  H          0.35750000       0.24330000       0.96620000
   199  H          0.64250000       0.74330000       0.53380000
   200  H          0.85750000       0.25670000       0.03380000
   201  C          0.86359830       0.00930190       0.40992140
   202  C          0.63640170      -0.00930190       0.90992140
   203  C          0.36359830       0.49069810       0.59007860
   204  C          0.13640170       0.50930190       0.09007860
   205  C          0.13640170      -0.00930190       0.59007860
   206  C          0.36359830       0.00930190       0.09007860
   207  C          0.63640170       0.50930190       0.40992140
   208  C          0.86359830       0.49069810       0.90992140
   209  H          0.86580000       0.94960000       0.37740000
   210  H          0.63420000       0.05040000       0.87740000
   211  H          0.36580000       0.55040000       0.62260000
   212  H          0.13420000       0.44960000       0.12260000
   213  H          0.13420000       0.05040000       0.62260000
   214  H          0.36580000       0.94960000       0.12260000
   215  H          0.63420000       0.44960000       0.37740000
   216  H          0.86580000       0.55040000       0.87740000
   217  C          0.86627850       0.08372000       0.53166120
   218  C          0.63372150       0.91628000       0.03166120
   219  C          0.36627850       0.41628000       0.46833880
   220  C          0.13372150       0.58372000       0.96833880
   221  C          0.13372150       0.91628000       0.46833880
   222  C          0.36627850       0.08372000       0.96833880
   223  C          0.63372150       0.58372000       0.53166120
   224  C          0.86627850       0.41628000       0.03166120
   225  H          0.87020000       0.07620000       0.58470000
   226  H          0.62980000       0.92380000       0.08470000
   227  H          0.37020000       0.42380000       0.41530000
   228  H          0.12980000       0.57620000       0.91530000
   229  H          0.12980000       0.92380000       0.41530000
   230  H          0.37020000       0.07620000       0.91530000
   231  H          0.62980000       0.57620000       0.58470000
   232  H          0.87020000       0.42380000       0.08470000
   233  C          0.84618000       0.30862000       0.39076150
   234  C          0.65382000       0.69138000       0.89076150
   235  C          0.34618000       0.19138000       0.60923850
   236  C          0.15382000       0.80862000       0.10923850
   237  C          0.15382000       0.69138000       0.60923850
   238  C          0.34618000       0.30862000       0.10923850
   239  C          0.65382000       0.80862000       0.39076150
   240  C          0.84618000       0.19138000       0.89076150
   241  H          0.91170000       0.32940000       0.37140000
   242  H          0.58830000       0.67060000       0.87140000
   243  H          0.41170000       0.17060000       0.62860000
   244  H          0.08830000       0.82940000       0.12860000
   245  H          0.08830000       0.67060000       0.62860000
   246  H          0.41170000       0.32940000       0.12860000
   247  H          0.58830000       0.82940000       0.37140000
   248  H          0.91170000       0.17060000       0.87140000
   249  H          0.82510000       0.35910000       0.42960000
   250  H          0.67490000       0.64090000       0.92960000
   251  H          0.32510000       0.14090000       0.57040000
   252  H          0.17490000       0.85910000       0.07040000
   253  H          0.17490000       0.64090000       0.57040000
   254  H          0.32510000       0.35910000       0.07040000
   255  H          0.67490000       0.85910000       0.42960000
   256  H          0.82510000       0.14090000       0.92960000
   257  H          0.79770000       0.30870000       0.34960000
   258  H          0.70230000       0.69130000       0.84960000
   259  H          0.29770000       0.19130000       0.65040000
   260  H          0.20230000       0.80870000       0.15040000
   261  H          0.20230000       0.69130000       0.65040000
   262  H          0.29770000       0.30870000       0.15040000
   263  H          0.70230000       0.80870000       0.34960000
   264  H          0.79770000       0.19130000       0.84960000
   265  C          0.87551810       0.88418000       0.52061160
   266  C          0.62448190       0.11582000       0.02061160
   267  C          0.37551810       0.61582000       0.47938840
   268  C          0.12448190       0.38418000       0.97938840
   269  C          0.12448190       0.11582000       0.47938840
   270  C          0.37551810       0.88418000       0.97938840
   271  C          0.62448190       0.38418000       0.52061160
   272  C          0.87551810       0.61582000       0.02061160
   273  H          0.81380000       0.86790000       0.54760000
   274  H          0.68620000       0.13210000       0.04760000
   275  H          0.31380000       0.63210000       0.45240000
   276  H          0.18620000       0.36790000       0.95240000
   277  H          0.18620000       0.13210000       0.45240000
   278  H          0.31380000       0.86790000       0.95240000
   279  H          0.68620000       0.36790000       0.54760000
   280  H          0.81380000       0.63210000       0.04760000
   281  H          0.93180000       0.88140000       0.55560000
   282  H          0.56820000       0.11860000       0.05560000
   283  H          0.43180000       0.61860000       0.44440000
   284  H          0.06820000       0.38140000       0.94440000
   285  H          0.06820000       0.11860000       0.44440000
   286  H          0.43180000       0.88140000       0.94440000
   287  H          0.56820000       0.38140000       0.55560000
   288  H          0.93180000       0.61860000       0.05560000
   289  H          0.88550000       0.83210000       0.48040000
   290  H          0.61450000       0.16790000       0.98040000
   291  H          0.38550000       0.66790000       0.51960000
   292  H          0.11450000       0.33210000       0.01960000
   293  H          0.11450000       0.16790000       0.51960000
   294  H          0.38550000       0.83210000       0.01960000
   295  H          0.61450000       0.33210000       0.48040000
   296  H          0.88550000       0.66790000       0.98040000
