data_QOWTAX
_symmetry_space_group_name_H-M    'P1'
_symmetry_Int_Tables_number       1
loop_
_symmetry_equiv_pos_site_id
_symmetry_equiv_pos_as_xyz
1 x,y,z
_cell_length_a                   6.21663
_cell_length_b                   7.18474
_cell_length_c                   13.12137
_cell_angle_alpha                74.72501
_cell_angle_beta                 83.33101
_cell_angle_gamma                85.82601
loop_
_atom_site_label
_atom_site_type_symbol
_atom_site_fract_x
_atom_site_fract_y
_atom_site_fract_z
     1  S          0.37115700       0.30152600       0.83627300
     2  S          0.62884300       0.69847400       0.16372700
     3  O          0.13405190       0.31666180       0.84709100
     4  O          0.86594810       0.68333820       0.15290900
     5  C          0.45533000       0.40163000       0.69982140
     6  C          0.54467000       0.59837000       0.30017860
     7  O          0.45212000       0.10023190       0.86021110
     8  O          0.54788000       0.89976810       0.13978890
     9  C          0.32773000       0.38633000       0.62422150
    10  C          0.67227000       0.61367000       0.37577850
    11  H          0.19150000       0.32850000       0.64530000
    12  H          0.80850000       0.67150000       0.35470000
    13  O          0.46682000       0.41412190       0.89546100
    14  O          0.53318000       0.58587810       0.10453900
    15  C          0.39753000       0.45593000       0.51487140
    16  C          0.60247000       0.54407000       0.48512860
    17  C          0.27133000       0.44123000       0.43413150
    18  C          0.72867000       0.55877000       0.56586850
    19  H          0.13570000       0.38190000       0.45350000
    20  H          0.86430000       0.61810000       0.54650000
    21  C          0.65913000       0.48933000       0.67079150
    22  C          0.34087000       0.51067000       0.32920850
    23  H          0.74580000       0.49950000       0.72390000
    24  H          0.25420000       0.50050000       0.27610000
    25  N          0.86648000       0.64302000       0.89659130
    26  N          0.13352000       0.35698000       0.10340870
    27  H          0.93220000       0.53140000       0.89410000
    28  H          0.06780000       0.46860000       0.10590000
    29  H          0.72410000       0.65540000       0.90080000
    30  H          0.27590000       0.34460000       0.09920000
    31  N          0.88677000       0.96322000       0.89648130
    32  N          0.11323000       0.03678000       0.10351870
    33  H          0.96540000       0.06160000       0.89390000
    34  H          0.03460000       0.93840000       0.10610000
    35  H          0.74450000       0.97760000       0.90070000
    36  H          0.25550000       0.02240000       0.09930000
    37  N          0.19643000       0.77312000       0.88764140
    38  N          0.80357000       0.22688000       0.11235860
    39  H          0.27430000       0.87200000       0.88510000
    40  H          0.72570000       0.12800000       0.11490000
    41  H          0.26100000       0.66060000       0.88590000
    42  H          0.73900000       0.33940000       0.11410000
    43  C         -0.01753000       0.79343000       0.89397140
    44  C          0.01753000       0.20657000       0.10602860
    45  C          0.97843000       0.03104000       0.39562000
    46  C          0.02157000       0.96896000       0.60438000
    47  H          0.96370000       0.05240000       0.32210000
    48  H          0.03630000       0.94760000       0.67790000
    49  C          0.81015000       0.07594000       0.46153000
    50  C          0.18985000       0.92406000       0.53847000
    51  H          0.67780000       0.12940000       0.43430000
    52  H          0.32220000       0.87060000       0.56570000
    53  C          0.16875000       0.95544000       0.43433000
    54  C          0.83125000       0.04456000       0.56567000
    55  H          0.28670000       0.92480000       0.38780000
    56  H          0.71330000       0.07520000       0.61220000
