data_QOWVON
_symmetry_space_group_name_H-M    'P1'
_symmetry_Int_Tables_number       1
loop_
_symmetry_equiv_pos_site_id
_symmetry_equiv_pos_as_xyz
1 x,y,z
_cell_length_a                   6.21276
_cell_length_b                   7.19757
_cell_length_c                   15.371716
_cell_angle_alpha                78.1052
_cell_angle_beta                 81.3762
_cell_angle_gamma                87.4932
loop_
_atom_site_label
_atom_site_type_symbol
_atom_site_fract_x
_atom_site_fract_y
_atom_site_fract_z
     1  S          0.38167700       0.78930600       0.36263300
     2  S          0.61832300       0.21069400       0.63736700
     3  O          0.14382000       0.79385190       0.37291900
     4  O          0.85618000       0.20614810       0.62708100
     5  C          0.47303000       0.88183000       0.24730120
     6  C          0.52697000       0.11817000       0.75269880
     7  O          0.46782000       0.59675190       0.38149900
     8  O          0.53218000       0.40324810       0.61850100
     9  C          0.68153000       0.96733000       0.22246130
    10  C          0.31847000       0.03267000       0.77753870
    11  H          0.76850000       0.97680000       0.26710000
    12  H          0.23150000       0.02320000       0.73290000
    13  O          0.46732000       0.91292000       0.41279900
    14  O          0.53268000       0.08708000       0.58720100
    15  C          0.75483000       0.03513000       0.13444130
    16  C          0.24517000       0.96487000       0.86555870
    17  H          0.89280000       0.09430000       0.11820000
    18  H          0.10720000       0.90570000       0.88180000
    19  C          0.63003000       0.01983000       0.06554120
    20  C          0.36997000       0.98017000       0.93445880
    21  C          0.41993000       0.93133000       0.09146120
    22  C          0.58007000       0.06867000       0.90853880
    23  C          0.34573000       0.86503000       0.18457120
    24  C          0.65427000       0.13497000       0.81542880
    25  H          0.20650000       0.80860000       0.20300000
    26  H          0.79350000       0.19140000       0.79700000
    27  C          0.70423000       0.08563000       0.97493870
    28  C          0.29577000       0.91437000       0.02506130
    29  H          0.84270000       0.14360000       0.95780000
    30  H          0.15730000       0.85640000       0.04220000
    31  N          0.88057000       0.12552000       0.41184110
    32  N          0.11943000       0.87448000       0.58815890
    33  H          0.73780000       0.13210000       0.41560000
    34  H          0.26220000       0.86790000       0.58440000
    35  H          0.94910000       0.01650000       0.40970000
    36  H          0.05090000       0.98350000       0.59030000
    37  N          0.20713000       0.26803000       0.40203130
    38  N          0.79287000       0.73197000       0.59796870
    39  H          0.28340000       0.36980000       0.39930000
    40  H          0.71660000       0.63020000       0.60070000
    41  H          0.27370000       0.15830000       0.39990000
    42  H          0.72630000       0.84170000       0.60010000
    43  N          0.89387000       0.44492000       0.41257110
    44  N          0.10613000       0.55508000       0.58742890
    45  H          0.97070000       0.54640000       0.40980000
    46  H          0.02930000       0.45360000       0.59020000
    47  H          0.75100000       0.45350000       0.41750000
    48  H          0.24900000       0.54650000       0.58250000
    49  C         -0.00713000       0.28003000       0.40938120
    50  C          0.00713000       0.71997000       0.59061880
    51  C          0.81116000       0.54103000       0.10053160
    52  C          0.18884000       0.45897000       0.89946840
    53  H          0.66730000       0.58670000       0.11530000
    54  H          0.33270000       0.41330000       0.88470000
    55  C          0.93835000       0.48193000       0.16684160
    56  C          0.06165000       0.51807000       0.83315840
    57  H          0.88240000       0.48750000       0.22730000
    58  H          0.11760000       0.51250000       0.77270000
    59  C          0.14984000       0.41333000       0.14628180
    60  C          0.85016000       0.58667000       0.85371820
    61  H          0.23620000       0.37260000       0.19290000
    62  H          0.76380000       0.62740000       0.80710000
    63  C          0.23274000       0.40423000       0.06069170
    64  C          0.76726000       0.59577000       0.93930830
    65  H          0.37640000       0.35640000       0.04790000
    66  H          0.62360000       0.64360000       0.95210000
    67  C          0.89257000       0.53463000       0.01043140
    68  C          0.10743000       0.46537000       0.98956860
