data_QOWVED
_symmetry_space_group_name_H-M    'P1'
_symmetry_Int_Tables_number       1
loop_
_symmetry_equiv_pos_site_id
_symmetry_equiv_pos_as_xyz
1 x,y,z
_cell_length_a                   6.20244
_cell_length_b                   7.19015
_cell_length_c                   15.18361
_cell_angle_alpha                80.85901
_cell_angle_beta                 82.23501
_cell_angle_gamma                85.20801
loop_
_atom_site_label
_atom_site_type_symbol
_atom_site_fract_x
_atom_site_fract_y
_atom_site_fract_z
     1  S          0.37834600       0.26974500       0.86007200
     2  S          0.62165400       0.73025500       0.13992800
     3  O          0.14026170       0.28555160       0.86864700
     4  O          0.85973830       0.71444840       0.13135300
     5  C          0.47032000       0.36412000       0.74733100
     6  C          0.52968000       0.63588000       0.25266900
     7  O          0.46316190       0.07304160       0.87248800
     8  O          0.53683810       0.92695840       0.12751200
     9  C          0.34482000       0.35612000       0.68090110
    10  C          0.65518000       0.64388000       0.31909890
    11  H          0.20680000       0.30320000       0.69550000
    12  H          0.79320000       0.69680000       0.30450000
    13  O          0.46737180       0.38329170       0.91631700
    14  O          0.53262820       0.61670830       0.08368300
    15  C          0.42002000       0.42702000       0.58937100
    16  C          0.57998000       0.57298000       0.41062900
    17  C          0.62672000       0.51172000       0.56977100
    18  C          0.37328000       0.48828000       0.43022900
    19  C          0.75033000       0.51772000       0.64181110
    20  C          0.24967000       0.48228000       0.35818890
    21  H          0.88660000       0.57380000       0.62950000
    22  H          0.11340000       0.42620000       0.37050000
    23  C          0.67683000       0.44472000       0.72784110
    24  C          0.32317000       0.55528000       0.27215890
    25  H          0.76290000       0.44740000       0.77480000
    26  H          0.23710000       0.55260000       0.22520000
    27  C          0.29843000       0.41682000       0.51936110
    28  C          0.70157000       0.58318000       0.48063890
    29  H          0.16240000       0.36020000       0.53250000
    30  H          0.83760000       0.63980000       0.46750000
    31  N          0.89298000       0.94428000       0.91296100
    32  N          0.10702000       0.05572000       0.08703900
    33  H          0.97090000       0.04210000       0.91090000
    34  H          0.02910000       0.95790000       0.08910000
    35  H          0.75010000       0.95980000       0.91620000
    36  H          0.24990000       0.04020000       0.08380000
    37  C         -0.00913000       0.77368000       0.91132100
    38  C          0.00913000       0.22632000       0.08867900
    39  N          0.20582000       0.75068000       0.90653110
    40  N          0.79418000       0.24932000       0.09346890
    41  H          0.28340000       0.84870000       0.90440000
    42  H          0.71660000       0.15130000       0.09560000
    43  H          0.27110000       0.63750000       0.90540000
    44  H          0.72890000       0.36250000       0.09460000
    45  N          0.87458000       0.62438000       0.91372900
    46  N          0.12542000       0.37562000       0.08627100
    47  H          0.94100000       0.51170000       0.91210000
    48  H          0.05900000       0.48830000       0.08790000
    49  H          0.73160000       0.63870000       0.91690000
    50  H          0.26840000       0.36130000       0.08310000
    51  C          0.86074000       0.02323000       0.57571150
    52  C          0.13926000       0.97677000       0.42428850
    53  H          0.76220000       0.04030000       0.62780000
    54  H          0.23780000       0.95970000       0.37220000
    55  C          0.06904000       0.94447000       0.58559140
    56  C          0.93096000       0.05553000       0.41440860
    57  C          0.79233000       0.07753000       0.49201160
    58  C          0.20767000       0.92247000       0.50798840
    59  H          0.64810000       0.13070000       0.48760000
    60  H          0.35190000       0.86930000       0.51240000
    61  C          0.14535000       0.88266000       0.67699180
    62  C          0.85465000       0.11734000       0.32300820
    63  H          0.06470000       0.95870000       0.72030000
    64  H          0.93530000       0.04130000       0.27970000
    65  H          0.30160000       0.90020000       0.67290000
    66  H          0.69840000       0.09980000       0.32710000
    67  H          0.11920000       0.74920000       0.69700000
    68  H          0.88080000       0.25080000       0.30300000
