data_QOXQAW
_symmetry_space_group_name_H-M    'P1'
_symmetry_Int_Tables_number       1
loop_
_symmetry_equiv_pos_site_id
_symmetry_equiv_pos_as_xyz
1 x,y,z
_cell_length_a                   5.81728
_cell_length_b                   11.800616
_cell_length_c                   11.817516
_cell_angle_alpha                79.6362
_cell_angle_beta                 76.8592
_cell_angle_gamma                78.6752
loop_
_atom_site_label
_atom_site_type_symbol
_atom_site_fract_x
_atom_site_fract_y
_atom_site_fract_z
     1  C          0.36063000       0.43199130       0.82037130
     2  C          0.63937000       0.56800870       0.17962870
     3  C          0.19493000       0.54319140       0.85504150
     4  C          0.80507000       0.45680860       0.14495850
     5  H          0.03010000       0.52780000       0.88070000
     6  H          0.96990000       0.47220000       0.11930000
     7  H          0.20380000       0.60500000       0.78730000
     8  H          0.79620000       0.39500000       0.21270000
     9  H          0.24450000       0.56810000       0.91930000
    10  H          0.75550000       0.43190000       0.08070000
    11  C          0.62103000       0.45225160       0.78562160
    12  C          0.37897000       0.54774840       0.21437840
    13  H          0.66800000       0.47370000       0.85250000
    14  H          0.33200000       0.52630000       0.14750000
    15  H          0.63710000       0.51540000       0.71950000
    16  H          0.36290000       0.48460000       0.28050000
    17  H          0.72470000       0.38060000       0.76270000
    18  H          0.27530000       0.61940000       0.23730000
    19  C          0.28473000       0.37959130       0.73005130
    20  C          0.71527000       0.62040870       0.26994870
    21  C          0.25583000       0.43164150       0.61777140
    22  C          0.74417000       0.56835850       0.38222860
    23  H          0.28760000       0.50870000       0.58900000
    24  H          0.71240000       0.49130000       0.41100000
    25  C          0.17933000       0.36877170       0.54829150
    26  C          0.82067000       0.63122830       0.45170850
    27  H          0.16050000       0.40300000       0.47110000
    28  H          0.83950000       0.59700000       0.52890000
    29  C          0.13013000       0.25667160       0.59044150
    30  C          0.86987000       0.74332840       0.40955850
    31  H          0.07430000       0.21570000       0.54260000
    32  H          0.92570000       0.78430000       0.45740000
    33  C          0.16193000       0.20401150       0.70203150
    34  C          0.83807000       0.79598850       0.29796850
    35  H          0.13090000       0.12680000       0.73050000
    36  H          0.86910000       0.87320000       0.26950000
    37  C          0.23993000       0.26634140       0.77117130
    38  C          0.76007000       0.73365860       0.22882870
    39  C          0.28903000       0.22541130       0.89292140
    40  C          0.71097000       0.77458870       0.10707860
    41  C          0.51503000       0.13324150       0.89195160
    42  C          0.48497000       0.86675850       0.10804840
    43  H          0.64840000       0.16280000       0.83510000
    44  H          0.35160000       0.83720000       0.16490000
    45  H          0.48720000       0.06160000       0.86990000
    46  H          0.51280000       0.93840000       0.13010000
    47  H          0.55400000       0.11630000       0.97030000
    48  H          0.44600000       0.88370000       0.02970000
    49  C          0.07583000       0.18472160       0.98168150
    50  C          0.92417000       0.81527840       0.01831850
    51  H          0.11240000       0.16920000       0.06050000
    52  H          0.88760000       0.83080000       0.93950000
    53  H          0.04310000       0.11320000       0.96160000
    54  H          0.95690000       0.88680000       0.03840000
    55  H          0.93490000       0.24570000       0.97990000
    56  H          0.06510000       0.75430000       0.02010000
    57  N          0.33732000       0.33562110       0.92083110
    58  N          0.66268000       0.66437890       0.07916890
    59  O          0.39772000       0.34035110       0.01680100
    60  O          0.60228000       0.65964890       0.98319900
    61  C          0.65963000       0.01501140       0.56317140
    62  C          0.34037000       0.98498860       0.43682860
    63  C          0.63363000       0.08774140       0.45972140
    64  C          0.36637000       0.91225860       0.54027860
    65  C          0.52603000       0.92544870       0.60581130
    66  C          0.47397000       0.07455130       0.39418870
    67  F          0.81725190       0.03268900       0.62270900
    68  F          0.18274810       0.96731100       0.37729100
    69  F          0.76632000       0.17356900       0.42392900
    70  F          0.23368000       0.82643100       0.57607100
    71  I          0.56676200       0.81441910       0.76105090
    72  I          0.43323800       0.18558090       0.23894910
