data_QOYKEY
_symmetry_space_group_name_H-M    'P1'
_symmetry_Int_Tables_number       1
loop_
_symmetry_equiv_pos_site_id
_symmetry_equiv_pos_as_xyz
1 x,y,z
_cell_length_a                   5.71042
_cell_length_b                   9.50204
_cell_length_c                   10.24815
_cell_angle_alpha                88.9632
_cell_angle_beta                 87.0322
_cell_angle_gamma                81.1762
loop_
_atom_site_label
_atom_site_type_symbol
_atom_site_fract_x
_atom_site_fract_y
_atom_site_fract_z
     1  N          0.25410170       0.04963100       0.89628900
     2  N          0.74589830       0.95036900       0.10371100
     3  F          0.40206160       0.36683800       0.03695800
     4  F          0.59793840       0.63316200       0.96304200
     5  N          0.08302000       0.17836140       0.07611110
     6  N          0.91698000       0.82163860       0.92388890
     7  H         -0.01630000       0.11251700       0.08351400
     8  H          0.01630000       0.88748300       0.91648600
     9  H          0.08630000       0.23751800       0.13201600
    10  H          0.91370000       0.76248200       0.86798400
    11  F          0.73768150       0.10145900       0.66925700
    12  F          0.26231850       0.89854100       0.33074300
    13  C          0.24992000       0.16119110       0.97601100
    14  C          0.75008000       0.83880890       0.02398900
    15  N          0.73302000       0.33707120       0.82728120
    16  N          0.26698000       0.66292880       0.17271880
    17  H          0.73130000       0.40561800       0.87931600
    18  H          0.26870000       0.59438200       0.12068400
    19  H          0.84130000       0.32491600       0.76591600
    20  H          0.15870000       0.67508400       0.23408400
    21  F          0.41841160       0.92213100       0.72292800
    22  F          0.58158840       0.07786900       0.27707200
    23  C          0.41162000       0.25492110       0.95423100
    24  C          0.58838000       0.74507890       0.04576900
    25  C          0.58167190       0.24168110       0.85192100
    26  C          0.41832810       0.75831890       0.14807900
    27  C          0.57922000       0.12389120       0.77267100
    28  C          0.42078000       0.87610880       0.22732900
    29  C          0.41662000       0.03583120       0.80018110
    30  C          0.58338000       0.96416880       0.19981890
    31  O          0.11204150       0.33406900       0.60755800
    32  O          0.88795850       0.66593100       0.39244200
    33  O          0.01238160       0.36000900       0.32267800
    34  O         -0.01238160       0.63999100       0.67732200
    35  C          0.26862000       0.43669120       0.59681120
    36  C          0.73138000       0.56330880       0.40318880
    37  H          0.25930000       0.48233200       0.51140600
    38  H          0.74070000       0.51766800       0.48859400
    39  H          0.43050400       0.39041700       0.60636200
    40  H          0.56949600       0.60958300       0.39363800
    41  C          0.15942000       0.22500130       0.51151120
    42  C          0.84058000       0.77499870       0.48848880
    43  H          0.15899700       0.13292100       0.55389700
    44  H          0.84100300       0.86707900       0.44610300
    45  H          0.31590000       0.22642200       0.47045200
    46  H          0.68410000       0.77357800       0.52954800
    47  C          0.98018000       0.24376120       0.40923120
    48  C          0.01982000       0.75623880       0.59076880
    49  H         -0.00637400       0.15687600       0.35932300
    50  H          0.00637400       0.84312400       0.64067700
    51  H          0.82214800       0.26112800       0.45092800
    52  H          0.17785200       0.73887200       0.54907200
    53  C          0.79908000       0.45378140       0.29862120
    54  C          0.20092000       0.54621860       0.70137880
    55  H          0.67119800       0.39825100       0.29216100
    56  H          0.32880200       0.60174900       0.70783900
    57  H          0.81856600       0.50197700       0.21540500
    58  H          0.18143400       0.49802300       0.78459500
