data_QOZKOI
_symmetry_space_group_name_H-M    'P1'
_symmetry_Int_Tables_number       1
loop_
_symmetry_equiv_pos_site_id
_symmetry_equiv_pos_as_xyz
1 x,y,z
_cell_length_a                   7.5864
_cell_length_b                   7.5864
_cell_length_c                   7.5864
_cell_angle_alpha                90.0
_cell_angle_beta                 90.0
_cell_angle_gamma                90.0
loop_
_atom_site_label
_atom_site_type_symbol
_atom_site_fract_x
_atom_site_fract_y
_atom_site_fract_z
     1  P          0.35159800       0.14841800       0.85159800
     2  P          0.14840200       0.85158200       0.35159800
     3  P          0.64840200       0.64841800       0.64840200
     4  P          0.85159800       0.35158200       0.14840200
     5  O          0.23892000       0.26112000       0.73892000
     6  O          0.26108000       0.73888000       0.23892000
     7  O          0.76108000       0.76112000       0.76108000
     8  O          0.73892000       0.23888000       0.26108000
     9  O          0.36392000       0.95388000       0.79392000
    10  O          0.13608000       0.04612000       0.29392000
    11  O          0.63608000       0.45388000       0.70608000
    12  O          0.86392000       0.54612000       0.20608000
    13  O          0.79392000       0.36392000       0.95388000
    14  O          0.29392000       0.13608000       0.04612000
    15  O          0.70608000       0.63608000       0.45388000
    16  O          0.20608000       0.86392000       0.54612000
    17  O          0.95388000       0.79392000       0.36392000
    18  O          0.04612000       0.29392000       0.13608000
    19  O          0.45388000       0.70608000       0.63608000
    20  O          0.54612000       0.20608000       0.86392000
    21  B          0.38334000       0.88326000       0.61674000
    22  B          0.11666000       0.11674000       0.11674000
    23  B          0.61666000       0.38326000       0.88326000
    24  B          0.88334000       0.61674000       0.38326000
    25  O          0.48852000      -0.01152000       0.51152000
    26  O          0.01148000       0.01152000       0.01152000
    27  O          0.51148000       0.48848000      -0.01152000
    28  O         -0.01148000       0.51152000       0.48848000
    29  N          0.12114000       0.62114000       0.87894000
    30  N          0.37886000       0.37886000       0.37894000
    31  N          0.87886000       0.12114000       0.62106000
    32  N          0.62114000       0.87886000       0.12106000
    33  H          0.06910000       0.64280000      -0.00520000
    34  H          0.43090000       0.35720000       0.49480000
    35  H          0.93090000       0.14280000       0.50520000
    36  H          0.56910000       0.85720000       0.00520000
    37  H         -0.00520000       0.06910000       0.64280000
    38  H          0.49480000       0.43090000       0.35720000
    39  H          0.50520000       0.93090000       0.14280000
    40  H          0.00520000       0.56910000       0.85720000
    41  H          0.64280000      -0.00520000       0.06910000
    42  H          0.35720000       0.49480000       0.43090000
    43  H          0.14280000       0.50520000       0.93090000
    44  H          0.85720000       0.00520000       0.56910000
    45  H          0.18111000       0.68111000       0.81911000
    46  H          0.31889000       0.31889000       0.31911000
    47  H          0.81889000       0.18111000       0.68089000
    48  H          0.68111000       0.81889000       0.18089000
    49  H          0.00680000       0.56910000       0.85880000
    50  H          0.49320000       0.43090000       0.35880000
    51  H         -0.00680000       0.06910000       0.64120000
    52  H          0.50680000       0.93090000       0.14120000
    53  H          0.85880000       0.00680000       0.56910000
    54  H          0.35880000       0.49320000       0.43090000
    55  H          0.64120000      -0.00680000       0.06910000
    56  H          0.14120000       0.50680000       0.93090000
    57  H          0.56910000       0.85880000       0.00680000
    58  H          0.43090000       0.35880000       0.49320000
    59  H          0.06910000       0.64120000      -0.00680000
    60  H          0.93090000       0.14120000       0.50680000
    61  H          0.14280000       0.50680000       0.93110000
    62  H          0.35720000       0.49320000       0.43110000
    63  H          0.85720000       0.00680000       0.56890000
    64  H          0.64280000      -0.00680000       0.06890000
    65  H          0.93110000       0.14280000       0.50680000
    66  H          0.43110000       0.35720000       0.49320000
    67  H          0.56890000       0.85720000       0.00680000
    68  H          0.06890000       0.64280000      -0.00680000
    69  H          0.50680000       0.93110000       0.14280000
    70  H          0.49320000       0.43110000       0.35720000
    71  H          0.00680000       0.56890000       0.85720000
    72  H         -0.00680000       0.06890000       0.64280000
