data_QUBNEH
_symmetry_space_group_name_H-M    'P1'
_symmetry_Int_Tables_number       1
loop_
_symmetry_equiv_pos_site_id
_symmetry_equiv_pos_as_xyz
1 x,y,z
_cell_length_a                   7.97559
_cell_length_b                   11.261915
_cell_length_c                   11.484816
_cell_angle_alpha                77.35811
_cell_angle_beta                 78.9911
_cell_angle_gamma                73.48811
loop_
_atom_site_label
_atom_site_type_symbol
_atom_site_fract_x
_atom_site_fract_y
_atom_site_fract_z
     1  N          0.43993000       0.55222000       0.30402000
     2  N          0.56007000       0.44778000       0.69598000
     3  H          0.33900000       0.58980000       0.35520000
     4  H          0.66100000       0.41020000       0.64480000
     5  H          0.53360000       0.50980000       0.35030000
     6  H          0.46640000       0.49020000       0.64970000
     7  H          0.41100000       0.49350000       0.26780000
     8  H          0.58900000       0.50650000       0.73220000
     9  C          0.49614000       0.65173000       0.20813000
    10  C          0.50386000       0.34827000       0.79187000
    11  H          0.58740000       0.60620000       0.15530000
    12  H          0.41260000       0.39380000       0.84470000
    13  H          0.55430000       0.69630000       0.25230000
    14  H          0.44570000       0.30370000       0.74770000
    15  C          0.34724000       0.74303000       0.14823000
    16  C          0.65276000       0.25697000       0.85177000
    17  H          0.26140000       0.77420000       0.20330000
    18  H          0.73860000       0.22580000       0.79670000
    19  H          0.39230000       0.81220000       0.09820000
    20  H          0.60770000       0.18780000       0.90180000
    21  N          0.27583000       0.68952000       0.06672000
    22  N          0.72417000       0.31048000       0.93328000
    23  H          0.24030000       0.62120000       0.11030000
    24  H          0.75970000       0.37880000       0.88970000
    25  H          0.36030000       0.66720000       0.00330000
    26  H          0.63970000       0.33280000      -0.00330000
    27  C          0.12114000       0.78063000       0.01283000
    28  C          0.87886000       0.21937000       0.98717000
    29  H          0.16430000       0.85320000       0.97180000
    30  H          0.83570000       0.14680000       0.02820000
    31  H          0.03530000       0.80020000       0.07830000
    32  H          0.96470000       0.19980000       0.92170000
    33  C          0.05194000       0.72313000       0.93007000
    34  C          0.94806000       0.27687000       0.06993000
    35  H          0.98370000       0.66920000       0.97580000
    36  H          0.01630000       0.33080000       0.02420000
    37  H          0.14930000       0.67920000       0.87870000
    38  H          0.85070000       0.32080000       0.12130000
    39  C          0.94226000       0.82883000       0.84797000
    40  C          0.05774000       0.17117000       0.15203000
    41  H          0.84370000       0.88320000       0.89170000
    42  H          0.15630000       0.11680000       0.10830000
    43  H          0.01630000       0.88820000       0.79380000
    44  H          0.98370000       0.11180000       0.20620000
    45  N          0.87157000       0.78042000       0.76148000
    46  N          0.12843000       0.21958000       0.23852000
    47  H          0.78570000       0.73720000       0.80580000
    48  H          0.21430000       0.26280000       0.19420000
    49  H          0.95870000       0.72020000       0.72870000
    50  H          0.04130000       0.27980000       0.27130000
    51  C          0.80006000       0.88343000       0.66297000
    52  C          0.19994000       0.11657000       0.33703000
    53  H          0.90870000       0.91720000       0.61080000
    54  H          0.09130000       0.08280000       0.38920000
    55  H          0.72870000       0.95120000       0.70070000
    56  H          0.27130000       0.04880000       0.29930000
    57  C          0.69016000       0.84393000       0.59087000
    58  C          0.30984000       0.15607000       0.40913000
    59  H          0.64870000       0.77630000       0.63580000
    60  H          0.35130000       0.22370000       0.36420000
    61  H          0.59270000       0.91630000       0.56580000
    62  H          0.40730000       0.08370000       0.43420000
    63  N          0.79227000       0.79802000       0.47908000
    64  N          0.20773000       0.20198000       0.52092000
    65  H          0.81800000       0.86390000       0.42410000
    66  H          0.18200000       0.13610000       0.57590000
    67  H          0.72670000       0.76160000       0.44810000
    68  H          0.27330000       0.23840000       0.55190000
    69  H          0.89400000       0.74070000       0.49700000
    70  H          0.10600000       0.25930000       0.50300000
    71  Cl         0.39415900       0.39015700       0.12660700
    72  Cl         0.60584100       0.60984300       0.87339300
    73  Cl         0.29209900       0.76166700       0.53717300
    74  Cl         0.70790100       0.23833300       0.46282700
    75  O          0.18612000       0.75612000       0.44950810
    76  O          0.81388000       0.24388000       0.55049190
    77  O          0.28122000       0.89031180       0.53968000
    78  O          0.71878000       0.10968820       0.46032000
    79  O          0.22852000       0.70112190       0.65481820
    80  O          0.77148000       0.29887810       0.34518180
    81  O          0.47322000       0.69349180       0.50444810
    82  O          0.52678000       0.30650820       0.49555190
    83  Cl         0.66131900       0.95303800       0.19273300
    84  Cl         0.33868100       0.04696200       0.80726700
    85  O          0.56757000       0.08102000       0.15388000
    86  O          0.43243000       0.91898000       0.84612000
    87  O          0.69317000       0.88282000       0.09688000
    88  O          0.30683000       0.11718000       0.90312000
    89  O          0.82797000       0.94997190       0.22747810
    90  O          0.17203000       0.05002810       0.77252190
    91  O          0.55668000       0.89698180       0.29565820
    92  O          0.44332000       0.10301820       0.70434180
    93  Cl         0.95147100       0.53687700       0.31430700
    94  Cl         0.04852900       0.46312300       0.68569300
    95  O          0.78122000       0.56698190       0.38721190
    96  O          0.21878000       0.43301810       0.61278810
    97  O          0.03383000       0.63899180       0.29900190
    98  O          0.96617000       0.36100820       0.70099810
    99  O          0.93033000       0.51784190       0.19863190
   100  O          0.06967000       0.48215810       0.80136810
   101  O          0.06362000       0.42402180       0.37423180
   102  O          0.93638000       0.57597820       0.62576820
