data_QUBVAN
_symmetry_space_group_name_H-M    'P1'
_symmetry_Int_Tables_number       1
loop_
_symmetry_equiv_pos_site_id
_symmetry_equiv_pos_as_xyz
1 x,y,z
_cell_length_a                   12.0663
_cell_length_b                   10.1273
_cell_length_c                   18.5285
_cell_angle_alpha                90.0
_cell_angle_beta                 90.13518
_cell_angle_gamma                90.0
loop_
_atom_site_label
_atom_site_type_symbol
_atom_site_fract_x
_atom_site_fract_y
_atom_site_fract_z
     1  Br         0.93402700       0.13165400       0.35021200
     2  Br         0.06597300       0.63165400       0.14978800
     3  Br         0.06597300       0.86834600       0.64978800
     4  Br         0.93402700       0.36834600       0.85021200
     5  O          0.43721190       0.57972000       0.58043120
     6  O          0.56278810       0.07972000       0.91956880
     7  O          0.56278810       0.42028000       0.41956880
     8  O          0.43721190       0.92028000       0.08043120
     9  O          0.53452000       0.19943000       0.64638120
    10  O          0.46548000       0.69943000       0.85361880
    11  O          0.46548000       0.80057000       0.35361880
    12  O          0.53452000       0.30057000       0.14638120
    13  N          0.39802000       0.38263000       0.52371150
    14  N          0.60198000       0.88263000       0.97628850
    15  N          0.60198000       0.61737000       0.47628850
    16  N          0.39802000       0.11737000       0.02371150
    17  N          0.62702000       0.20323000       0.54000150
    18  N          0.37298000       0.70323000       0.95999850
    19  N          0.37298000       0.79677000       0.45999850
    20  N          0.62702000       0.29677000       0.04000150
    21  C          0.25183000       0.22283000       0.48653160
    22  C          0.74817000       0.72283000       0.01346840
    23  C          0.74817000       0.77717000       0.51346840
    24  C          0.25183000       0.27717000       0.98653160
    25  C          0.06703000       0.16654000       0.40334170
    26  C          0.93297000       0.66654000       0.09665830
    27  C          0.93297000       0.83346000       0.59665830
    28  C          0.06703000       0.33346000       0.90334170
    29  C          0.39043000       0.47103000       0.57767160
    30  C          0.60957000       0.97103000       0.92232840
    31  C          0.60957000       0.52897000       0.42232840
    32  C          0.39043000       0.02897000       0.07767160
    33  C          0.53663000       0.18534000       0.58071180
    34  C          0.46337000       0.68534000       0.91928820
    35  C          0.46337000       0.81466000       0.41928820
    36  C          0.53663000       0.31466000       0.08071180
    37  C          0.31743000       0.41253000       0.63232170
    38  C          0.68257000       0.91253000       0.86767830
    39  C          0.68257000       0.58747000       0.36767830
    40  C          0.31743000       0.08747000       0.13232170
    41  C          0.34613000       0.25503000       0.53905160
    42  C          0.65387000       0.75503000       0.96094840
    43  C          0.65387000       0.74497000       0.46094840
    44  C          0.34613000       0.24497000       0.03905160
    45  C          0.73273000       0.24764000       0.56300180
    46  C          0.26727000       0.74764000       0.93699820
    47  C          0.26727000       0.75236000       0.43699820
    48  C          0.73273000       0.25236000       0.06300180
    49  C          0.11443000       0.06794000       0.44396170
    50  C          0.88557000       0.56794000       0.05603830
    51  C          0.88557000       0.93206000       0.55603830
    52  C          0.11443000       0.43206000       0.94396170
    53  H          0.08460500       0.98316500       0.44362300
    54  H          0.91539500       0.48316500       0.05637700
    55  H          0.91539500       0.01683500       0.55637700
    56  H          0.08460500       0.51683500       0.94362300
    57  C          0.29503000       0.28393000       0.61272160
    58  C          0.70497000       0.78393000       0.88727840
    59  C          0.70497000       0.71607000       0.38727840
    60  C          0.29503000       0.21607000       0.11272160
    61  C          0.43423000       0.14473000       0.53810170
    62  C          0.56577000       0.64473000       0.96189830
    63  C          0.56577000       0.85527000       0.46189830
    64  C          0.43423000       0.35527000       0.03810170
    65  C          0.27323000       0.46834000       0.69454170
    66  C          0.72677000       0.96834000       0.80545830
    67  C          0.72677000       0.53166000       0.30545830
    68  C          0.27323000       0.03166000       0.19454170
    69  H          0.28865300       0.55527200       0.70718800
    70  H          0.71134700       0.05527200       0.79281200
    71  H          0.71134700       0.44472800       0.29281200
    72  H          0.28865300       0.94472800       0.20718800
    73  C          0.22823000       0.20464000       0.65499170
    74  C          0.77177000       0.70464000       0.84500830
    75  C          0.77177000       0.79536000       0.34500830
    76  C          0.22823000       0.29536000       0.15499170
    77  H          0.21344900       0.11753700       0.64230900
    78  H          0.78655100       0.61753700       0.85769100
    79  H          0.78655100       0.88246300       0.35769100
    80  H          0.21344900       0.38246300       0.14230900
    81  C          0.20413000       0.32024000       0.44356170
    82  C          0.79587000       0.82024000       0.05643830
    83  C          0.79587000       0.67976000       0.55643830
    84  C          0.20413000       0.17976000       0.94356170
    85  H          0.23441600       0.40466000       0.44282200
    86  H          0.76558400       0.90466000       0.05717800
    87  H          0.76558400       0.59534000       0.55717800
    88  H          0.23441600       0.09534000       0.94282200
    89  C          0.20763000       0.09624000       0.48560170
    90  C          0.79237000       0.59624000       0.01439830
    91  C          0.79237000       0.90376000       0.51439830
    92  C          0.20763000       0.40376000       0.98560170
    93  H          0.24043500       0.02993900       0.51300200
    94  H          0.75956500       0.52993900       0.98699800
    95  H          0.75956500       0.97006100       0.48699800
    96  H          0.24043500       0.47006100       0.01300200
    97  C          0.11173000       0.29204000       0.40188180
    98  C          0.88827000       0.79204000       0.09811820
    99  C          0.88827000       0.70796000       0.59811820
   100  C          0.11173000       0.20796000       0.90188180
   101  H          0.07994600       0.35708800       0.37309300
   102  H          0.92005400       0.85708800       0.12690700
   103  H          0.92005400       0.64291200       0.62690700
   104  H          0.07994600       0.14291200       0.87309300
   105  C          0.20583000       0.39064000       0.73678190
   106  C          0.79417000       0.89064000       0.76321810
   107  C          0.79417000       0.60936000       0.26321810
   108  C          0.20583000       0.10936000       0.23678190
   109  H          0.17462300       0.42505900       0.77859800
   110  H          0.82537700       0.92505900       0.72140200
   111  H          0.82537700       0.57494100       0.22140200
   112  H          0.17462300       0.07494100       0.27859800
   113  C          0.18403000       0.25984000       0.71686180
   114  C          0.81597000       0.75984000       0.78313820
   115  C          0.81597000       0.74016000       0.28313820
   116  C          0.18403000       0.24016000       0.21686180
   117  H          0.13861400       0.20845400       0.74608100
   118  H          0.86138600       0.70845400       0.75391900
   119  H          0.86138600       0.79154600       0.25391900
   120  H          0.13861400       0.29154600       0.24608100
   121  C          0.79973000       0.30234000       0.51105190
   122  C          0.20027000       0.80234000       0.98894810
   123  C          0.20027000       0.69766000       0.48894810
   124  C          0.79973000       0.19766000       0.01105190
   125  H          0.77438800       0.30964600       0.46376200
   126  H          0.22561200       0.80964600       0.03623800
   127  H          0.22561200       0.69035400       0.53623800
   128  H          0.77438800       0.19035400       0.96376200
   129  C          0.77163000       0.23304000       0.63342000
   130  C          0.22837000       0.73304000       0.86658000
   131  C          0.22837000       0.76696000       0.36658000
   132  C          0.77163000       0.26696000       0.13342000
   133  H          0.72750000       0.19417700       0.66862000
   134  H          0.27250000       0.69417700       0.83138000
   135  H          0.27250000       0.80582300       0.33138000
   136  H          0.72750000       0.30582300       0.16862000
   137  C          0.90483000       0.34654000       0.52912000
   138  C          0.09517000       0.84654000       0.97088000
   139  C          0.09517000       0.65346000       0.47088000
   140  C          0.90483000       0.15346000       0.02912000
   141  H          0.94936500       0.38560800       0.49422600
   142  H          0.05063500       0.88560800       0.00577400
   143  H          0.05063500       0.61439200       0.50577400
   144  H          0.94936500       0.11439200      -0.00577400
   145  C          0.94353000       0.33245000       0.59903000
   146  C          0.05647000       0.83245000       0.90097000
   147  C          0.05647000       0.66755000       0.40097000
   148  C          0.94353000       0.16755000       0.09903000
   149  H          0.01459800       0.36040000       0.61099000
   150  H          0.98540200       0.86040000       0.88901000
   151  H          0.98540200       0.63960000       0.38901000
   152  H          0.01459800       0.13960000       0.11099000
   153  C          0.87713000       0.27745000       0.65002000
   154  C          0.12287000       0.77745000       0.84998000
   155  C          0.12287000       0.72255000       0.34998000
   156  C          0.87713000       0.22255000       0.15002000
   157  H          0.90320500       0.26952200       0.69712300
   158  H          0.09679500       0.76952200       0.80287700
   159  H          0.09679500       0.73047800       0.30287700
   160  H          0.90320500       0.23047800       0.19712300
   161  H          0.61530000       0.20240000       0.49520000
   162  H          0.38470000       0.70240000       0.00480000
   163  H          0.38470000       0.79760000       0.50480000
   164  H          0.61530000       0.29760000      -0.00480000
   165  H          0.44830000       0.39140000       0.48820000
   166  H          0.55170000       0.89140000       0.01180000
   167  H          0.55170000       0.60860000       0.51180000
   168  H          0.44830000       0.10860000       0.98820000
   169  S          0.60496800       0.18013900       0.31482400
   170  S          0.39503200       0.68013900       0.18517600
   171  S          0.39503200       0.81986100       0.68517600
   172  S          0.60496800       0.31986100       0.81482400
   173  O          0.63582000       0.12642000       0.38800120
   174  O          0.36418000       0.62642000       0.11199880
   175  O          0.36418000       0.87358000       0.61199880
   176  O          0.63582000       0.37358000       0.88800120
   177  C          0.45893000       0.19944000       0.31442000
   178  C          0.54107000       0.69944000       0.18558000
   179  C          0.54107000       0.80056000       0.68558000
   180  C          0.45893000       0.30056000       0.81442000
   181  H          0.43553600       0.23358800       0.26846200
   182  H          0.56446400       0.73358800       0.23153800
   183  H          0.56446400       0.76641200       0.73153800
   184  H          0.43553600       0.26641200       0.76846200
   185  H          0.42436100       0.11527800       0.32252200
   186  H          0.57563900       0.61527800       0.17747800
   187  H          0.57563900       0.88472200       0.67747800
   188  H          0.42436100       0.38472200       0.82252200
   189  H          0.43763700       0.25962000       0.35186200
   190  H          0.56236300       0.75962000       0.14813800
   191  H          0.56236300       0.74038000       0.64813800
   192  H          0.43763700       0.24038000       0.85186200
   193  C          0.61064000       0.04344000       0.25424190
   194  C          0.38936000       0.54344000       0.24575810
   195  C          0.38936000       0.95656000       0.74575810
   196  C          0.61064000       0.45656000       0.75424190
   197  H          0.59146900       0.07233300       0.20647200
   198  H          0.40853100       0.57233300       0.29352800
   199  H          0.40853100       0.92766700       0.79352800
   200  H          0.59146900       0.42766700       0.70647200
   201  H          0.68414800       0.00732800       0.25409000
   202  H          0.31585200       0.50732800       0.24591000
   203  H          0.31585200      -0.00732800       0.74591000
   204  H          0.68414800       0.49267200       0.75409000
   205  H          0.55906600       0.97682000       0.26957600
   206  H          0.44093400       0.47682000       0.23042400
   207  H          0.44093400       0.02318000       0.73042400
   208  H          0.55906600       0.52318000       0.76957600
