data_QUGNUE
_symmetry_space_group_name_H-M    'P1'
_symmetry_Int_Tables_number       1
loop_
_symmetry_equiv_pos_site_id
_symmetry_equiv_pos_as_xyz
1 x,y,z
_cell_length_a                   4.75353
_cell_length_b                   15.80106
_cell_length_c                   29.855011
_cell_angle_alpha                90.0
_cell_angle_beta                 90.0
_cell_angle_gamma                90.0
loop_
_atom_site_label
_atom_site_type_symbol
_atom_site_fract_x
_atom_site_fract_y
_atom_site_fract_z
     1  F          0.39595000       0.58263120       0.26302600
     2  F          0.10405000       0.41736880       0.76302600
     3  F          0.89595000       0.91736880       0.73697400
     4  F          0.60405000       0.08263120       0.23697400
     5  O          0.28096000       0.00463150       0.43806800
     6  O          0.21904000      -0.00463150       0.93806800
     7  O          0.78096000       0.49536850       0.56193200
     8  O          0.71904000       0.50463150       0.06193200
     9  O          0.96746000       0.74121120       0.45850600
    10  O          0.53254000       0.25878880       0.95850600
    11  O          0.46746000       0.75878880       0.54149400
    12  O          0.03254000       0.24121120       0.04149400
    13  O          0.16237000       0.61554130       0.44513700
    14  O          0.33763000       0.38445870       0.94513700
    15  O          0.66237000       0.88445870       0.55486300
    16  O          0.83763000       0.11554130       0.05486300
    17  O          0.81807000       0.33357150       0.17837700
    18  O          0.68193000       0.66642850       0.67837700
    19  O          0.31807000       0.16642850       0.82162300
    20  O          0.18193000       0.83357150       0.32162300
    21  N          0.72306000       0.43711130       0.25544700
    22  N          0.77694000       0.56288870       0.75544700
    23  N          0.22306000       0.06288870       0.74455300
    24  N          0.27694000       0.93711130       0.24455300
    25  N          0.82636000       0.67239120       0.39801700
    26  N          0.67364000       0.32760880       0.89801700
    27  N          0.32636000       0.82760880       0.60198300
    28  N          0.17364000       0.17239120       0.10198300
    29  N          0.96016000       0.92428130       0.47189700
    30  N          0.53984000       0.07571870       0.97189700
    31  N          0.46016000       0.57571870       0.52810300
    32  N          0.03984000       0.42428130       0.02810300
    33  H          0.87888400       0.90990100       0.49648200
    34  H          0.62111600       0.09009900      -0.00351800
    35  H          0.37888400       0.59009900       0.50351800
    36  H          0.12111600       0.40990100       0.00351800
    37  C          0.20579000       0.02874190       0.51626110
    38  C          0.29421000       0.97125810       0.01626110
    39  C          0.70579000       0.47125810       0.48373890
    40  C          0.79421000       0.52874190       0.98373890
    41  H          0.39391300       0.01685500       0.52605800
    42  H          0.10608700       0.98314500       0.02605800
    43  H          0.89391300       0.48314500       0.47394200
    44  H          0.60608700       0.51685500       0.97394200
    45  H          0.07430900       0.00875600       0.53827900
    46  H          0.42569100      -0.00875600       0.03827900
    47  H          0.57430900       0.49124400       0.46172100
    48  H          0.92569100       0.50875600       0.96172100
    49  H          0.18310200       0.08867800       0.51243300
    50  H          0.31689800       0.91132200       0.01243300
    51  H          0.68310200       0.41132200       0.48756700
    52  H          0.81689800       0.58867800       0.98756700
    53  C          0.15208000       0.98486150       0.47252900
    54  C          0.34792000       0.01513850       0.97252900
    55  C          0.65208000       0.51513850       0.52747100
    56  C          0.84792000       0.48486150       0.02747100
    57  C          0.88348000       0.88146160       0.43060800
    58  C          0.61652000       0.11853840       0.93060800
    59  C          0.38348000       0.61853840       0.56939200
    60  C          0.11652000       0.38146160       0.06939200
    61  H          0.04957300       0.87526700       0.41203900
    62  H          0.45042700       0.12473300       0.91203900
    63  H          0.54957300       0.62473300       0.58796100
    64  H          0.95042700       0.37526700       0.08796100
    65  H          0.74917700       0.91603000       0.41434800
    66  H          0.75082300       0.08397000       0.91434800
    67  H          0.24917700       0.58397000       0.58565200
    68  H          0.25082300       0.41603000       0.08565200
    69  C          0.75807000       0.79615150       0.43879800
    70  C          0.74193000       0.20384850       0.93879800
    71  C          0.25807000       0.70384850       0.56120200
    72  C          0.24193000       0.29615150       0.06120200
    73  H          0.59466900       0.80094800       0.45867000
    74  H          0.90533100       0.19905200       0.95867000
    75  H          0.09466900       0.69905200       0.54133000
    76  H          0.40533100       0.30094800       0.04133000
    77  C          0.67468000       0.75191150       0.39522800
    78  C          0.82532000       0.24808850       0.89522800
    79  C          0.17468000       0.74808850       0.60477200
    80  C          0.32532000       0.25191150       0.10477200
    81  H          0.47310300       0.74263000       0.39378500
    82  H          0.02689700       0.25737000       0.89378500
    83  H         -0.02689700       0.75737000       0.60621500
    84  H          0.52689700       0.24263000       0.10621500
    85  H          0.73313800       0.78444000       0.36928700
    86  H          0.76686200       0.21556000       0.86928700
    87  H          0.23313800       0.71556000       0.63071300
    88  H          0.26686200       0.28444000       0.13071300
    89  C         -0.00412000       0.66986150       0.43393800
    90  C          0.50412000       0.33013850       0.93393800
    91  C          0.49588000       0.83013850       0.56606200
    92  C          0.00412000       0.16986150       0.06606200
    93  C          0.80577000       0.61067140       0.36350800
    94  C          0.69423000       0.38932860       0.86350800
    95  C          0.30577000       0.88932860       0.63649200
    96  C          0.19423000       0.11067140       0.13649200
    97  C          0.61628000       0.62442160       0.32886800
    98  C          0.88372000       0.37557840       0.82886800
    99  C          0.11628000       0.87557840       0.67113200
   100  C          0.38372000       0.12442160       0.17113200
   101  H          0.50418900       0.67267500       0.32894900
   102  H         -0.00418900       0.32732500       0.82894900
   103  H          0.00418900       0.82732500       0.67105100
   104  H          0.49581100       0.17267500       0.17105100
   105  C          0.59358000       0.56715160       0.29452800
   106  C          0.90642000       0.43284840       0.79452800
   107  C          0.09358000       0.93284840       0.70547200
   108  C          0.40642000       0.06715160       0.20547200
   109  C          0.75597000       0.49425150       0.29141800
   110  C          0.74403000       0.50574850       0.79141800
   111  C          0.25597000       0.00574850       0.70858200
   112  C          0.24403000      -0.00574850       0.20858200
   113  C          0.94068000       0.48146160       0.32701900
   114  C          0.55932000       0.51853840       0.82701900
   115  C          0.44068000       0.01853840       0.67298100
   116  C          0.05932000       0.98146160       0.17298100
   117  H          0.05272000       0.43321800       0.32687900
   118  H          0.44728000       0.56678200       0.82687900
   119  H          0.55272000       0.06678200       0.67312100
   120  H          0.94728000       0.93321800       0.17312100
   121  C          0.96518000       0.53725170       0.36256900
   122  C          0.53482000       0.46274830       0.86256900
   123  C          0.46518000       0.96274830       0.63743100
   124  C          0.03482000       0.03725170       0.13743100
   125  H          0.08872700       0.52541300       0.38587100
   126  H          0.41127300       0.47458700       0.88587100
   127  H          0.58872700       0.97458700       0.61412900
   128  H          0.91127300       0.02541300       0.11412900
   129  C          0.76059000       0.47355180       0.21052900
   130  C          0.73941000       0.52644820       0.71052900
   131  C          0.26059000       0.02644820       0.78947100
   132  C          0.23941000       0.97355180       0.28947100
   133  H          0.95738900       0.48685600       0.20568100
   134  H          0.54261100       0.51314400       0.70568100
   135  H          0.45738900       0.01314400       0.79431900
   136  H          0.04261100       0.98685600       0.29431900
   137  H          0.65316900       0.52555100       0.20803100
   138  H          0.84683100       0.47444900       0.70803100
   139  H          0.15316900       0.97444900       0.79196900
   140  H          0.34683100       0.02555100       0.29196900
   141  C          0.66261100       0.41142000       0.17579100
   142  C          0.83738900       0.58858000       0.67579100
   143  C          0.16261100       0.08858000       0.82420900
   144  C          0.33738900       0.91142000       0.32420900
   145  H          0.46406800       0.39983800       0.18016300
   146  H          0.03593200       0.60016200       0.68016300
   147  H          0.96406800       0.10016200       0.81983700
   148  H          0.53593200       0.89983800       0.31983700
   149  H          0.68591400       0.43590300       0.14622900
   150  H          0.81408600       0.56409700       0.64622900
   151  H          0.18591400       0.06409700       0.85377100
   152  H          0.31408600       0.93590300       0.35377100
   153  C          0.79101000       0.29863190       0.22206100
   154  C          0.70899000       0.70136810       0.72206100
   155  C          0.29101000       0.20136810       0.77793900
   156  C          0.20899000       0.79863190       0.27793900
   157  H          0.90252400       0.24733900       0.22391800
   158  H          0.59747600       0.75266100       0.72391800
   159  H          0.40252400       0.25266100       0.77608200
   160  H          0.09747600       0.74733900       0.27608200
   161  H          0.59595100       0.28343400       0.22720800
   162  H          0.90404900       0.71656600       0.72720800
   163  H          0.09595100       0.21656600       0.77279200
   164  H          0.40404900       0.78343400       0.27279200
   165  C          0.88509000       0.35918160       0.25810900
   166  C          0.61491000       0.64081840       0.75810900
   167  C          0.38509000       0.14081840       0.74189100
   168  C          0.11491000       0.85918160       0.24189100
   169  H          0.85887800       0.33340600       0.28728800
   170  H          0.64112200       0.66659400       0.78728800
   171  H          0.35887800       0.16659400       0.71271200
   172  H          0.14112200       0.83340600       0.21271200
   173  H          0.08347700       0.37167500       0.25441500
   174  H          0.41652300       0.62832500       0.75441500
   175  H          0.58347700       0.12832500       0.74558500
   176  H          0.91652300       0.87167500       0.24558500
   177  O          0.35496000       0.62421130       0.06430800
   178  O          0.14504000       0.37578870       0.56430800
   179  O          0.85496000       0.87578870       0.93569200
   180  O          0.64504000       0.12421130       0.43569200
   181  H          0.46813900       0.58507300       0.06486800
   182  H          0.03186100       0.41492700       0.56486800
   183  H          0.96813900       0.91492700       0.93513200
   184  H          0.53186100       0.08507300       0.43513200
   185  O          0.29207000       0.58413140       0.13501800
   186  O          0.20793000       0.41586860       0.63501800
   187  O          0.79207000       0.91586860       0.86498200
   188  O          0.70793000       0.08413140       0.36498200
   189  O          0.95162000       0.66707170       0.18534900
   190  O          0.54838000       0.33292830       0.68534900
   191  O          0.45162000       0.83292830       0.81465100
   192  O          0.04838000       0.16707170       0.31465100
   193  H          0.03447500       0.62385400       0.17776200
   194  H          0.46552500       0.37614600       0.67776200
   195  H          0.53447500       0.87614600       0.82223800
   196  H          0.96552500       0.12385400       0.32223800
   197  O          0.09057000       0.75505160       0.03169800
   198  O          0.40943000       0.24494840       0.53169800
   199  O          0.59057000       0.74494840       0.96830200
   200  O          0.90943000       0.25505160       0.46830200
   201  H          0.21069700       0.71782000       0.03145500
   202  H          0.28930300       0.28218000       0.53145500
   203  H          0.71069700       0.78218000       0.96854500
   204  H          0.78930300       0.21782000       0.46854500
   205  C          0.23568000       0.63204170       0.10411100
   206  C          0.26432000       0.36795830       0.60411100
   207  C          0.73568000       0.86795830       0.89588900
   208  C          0.76432000       0.13204170       0.39588900
   209  C          0.02877000       0.70131160       0.10766100
   210  C          0.47123000       0.29868840       0.60766100
   211  C          0.52877000       0.79868840       0.89233900
   212  C         -0.02877000       0.20131160       0.39233900
   213  C          0.88831000       0.71315180       0.14875110
   214  C          0.61169000       0.28684820       0.64875110
   215  C          0.38831000       0.78684820       0.85124890
   216  C          0.11169000       0.21315180       0.35124890
   217  C          0.68221000       0.77512000       0.15314140
   218  C          0.81779000       0.22488000       0.65314140
   219  C          0.18221000       0.72488000       0.84685860
   220  C          0.31779000       0.27512000       0.34685860
   221  H          0.58655100       0.78171000       0.18007800
   222  H          0.91344900       0.21829000       0.68007800
   223  H          0.08655100       0.71829000       0.81992200
   224  H          0.41344900       0.28171000       0.31992200
   225  C          0.62191000       0.82612000       0.11741150
   226  C          0.87809000       0.17388000       0.61741150
   227  C          0.12191000       0.67388000       0.88258850
   228  C          0.37809000       0.32612000       0.38258850
   229  H          0.48321300       0.86722500       0.12042600
   230  H          0.01678700       0.13277500       0.62042600
   231  H         -0.01678700       0.63277500       0.87957400
   232  H          0.51678700       0.36722500       0.37957400
   233  C          0.75981000       0.81862000       0.07727130
   234  C          0.74019000       0.18138000       0.57727130
   235  C          0.25981000       0.68138000       0.92272870
   236  C          0.24019000       0.31862000       0.42272870
   237  H          0.71645800       0.85461600       0.05364300
   238  H          0.78354200       0.14538400       0.55364300
   239  H          0.21645800       0.64538400       0.94635700
   240  H          0.28354200       0.35461600       0.44635700
   241  C          0.96432000       0.75690180       0.07211110
   242  C          0.53568000       0.24309820       0.57211110
   243  C          0.46432000       0.74309820       0.92788890
   244  C          0.03568000       0.25690180       0.42788890
