data_QUGNEO
_symmetry_space_group_name_H-M    'P1'
_symmetry_Int_Tables_number       1
loop_
_symmetry_equiv_pos_site_id
_symmetry_equiv_pos_as_xyz
1 x,y,z
_cell_length_a                   6.496179
_cell_length_b                   7.4188818
_cell_length_c                   23.58704
_cell_angle_alpha                90.0
_cell_angle_beta                 92.941813
_cell_angle_gamma                90.0
loop_
_atom_site_label
_atom_site_type_symbol
_atom_site_fract_x
_atom_site_fract_y
_atom_site_fract_z
     1  F          0.80982000       0.02633000       0.37441600
     2  F          0.19018000       0.52633000       0.62558400
     3  O          0.18153000       0.15033000       0.96210300
     4  O          0.81847000       0.65033000       0.03789700
     5  O          0.80842000       0.03863000       0.09854600
     6  O          0.19158000       0.53863000       0.90145400
     7  O          0.63192000       0.02364000       0.17727700
     8  O          0.36808000       0.52364000       0.82272300
     9  O          0.31933000       0.76037000       0.52246700
    10  O          0.68067000       0.26037000       0.47753300
    11  N          0.18573000       0.90417000       0.41515700
    12  N          0.81427000       0.40417000       0.58484300
    13  N         -0.01088000       0.00823000       0.18053700
    14  N          0.01088000       0.50823000       0.81946300
    15  N          0.26853000       0.26613000       0.04742800
    16  N          0.73147000       0.76613000       0.95257200
    17  H          0.36508100       0.30913200       0.06977400
    18  H          0.63491900       0.80913200       0.93022600
    19  C          0.52394000       0.26834000       0.97709880
    20  C          0.47606000       0.76834000       0.02290120
    21  H          0.59210700       0.15978700       0.96626700
    22  H          0.40789300       0.65978700       0.03373300
    23  H          0.60095800       0.32376000       0.00824300
    24  H          0.39904200       0.82376000       0.99175700
    25  H          0.51467900       0.34992000       0.94548900
    26  H          0.48532100       0.84992000       0.05451100
    27  C          0.31193000       0.22393000      -0.00528900
    28  C          0.68807000       0.72393000       0.00528900
    29  C          0.06483000       0.24264000       0.06899100
    30  C          0.93517000       0.74264000       0.93100900
    31  H          0.96195000       0.28231500       0.04041600
    32  H          0.03805000       0.78231500       0.95958400
    33  H          0.05270500       0.31788600       0.10228600
    34  H          0.94729500       0.81788600       0.89771400
    35  C          0.02183000       0.04954000       0.08447800
    36  C         -0.02183000       0.54954000       0.91552200
    37  H          0.04690200       0.97006700       0.05234500
    38  H          0.95309800       0.47006700       0.94765500
    39  C          0.14093000      -0.01764000       0.13777900
    40  C          0.85907000       0.48236000       0.86222100
    41  H          0.17888400       0.85655200       0.13440900
    42  H          0.82111600       0.35655200       0.86559100
    43  H          0.26389000       0.05371400       0.14612000
    44  H          0.73611000       0.55371400       0.85388000
    45  C          0.79533000       0.02304000       0.15563900
    46  C          0.20467000       0.52304000       0.84436100
    47  C          0.03623000       0.97786000       0.23911800
    48  C          0.96377000       0.47786000       0.76088200
    49  C          0.89303000       0.01474000       0.27972900
    50  C          0.10697000       0.51474000       0.72027100
    51  H          0.76232200       0.05788600       0.26908900
    52  H          0.23767800       0.55788600       0.73091100
    53  C          0.95053000      -0.01464000       0.33572900
    54  C          0.04947000       0.48536000       0.66427100
    55  C          0.14163000       0.92217000       0.35581900
    56  C          0.85837000       0.42217000       0.64418100
    57  C          0.28073000       0.88916000       0.31413100
    58  C          0.71927000       0.38916000       0.68586900
    59  H          0.41194300       0.84754600       0.32497200
    60  H          0.58805700       0.34754600       0.67502800
    61  C          0.23033000       0.91626000       0.25703900
    62  C          0.76967000       0.41626000       0.74296100
    63  H          0.32759800       0.89303100       0.23040500
    64  H          0.67240200       0.39303100       0.76959500
    65  C          0.07204000       0.76126000       0.44223900
    66  C          0.92796000       0.26126000       0.55776100
    67  H          0.11760100       0.64489700       0.42895400
    68  H          0.88239900       0.14489700       0.57104600
    69  H          0.92605800       0.77313700       0.43201900
    70  H          0.07394200       0.27313700       0.56798100
    71  C          0.10674000       0.77206000       0.50611100
    72  C          0.89326000       0.27206000       0.49388900
    73  H          0.05201400       0.88509600       0.51953800
    74  H          0.94798600       0.38509600       0.48046200
    75  H          0.03326400       0.67460400       0.52359900
    76  H          0.96673600       0.17460400       0.47640100
    77  C          0.42744000       0.90185000       0.49661110
    78  C          0.57256000       0.40185000       0.50338890
    79  H          0.57242200       0.89453800       0.50839600
    80  H          0.42757800       0.39453800       0.49160400
    81  H          0.37561800       0.01683000       0.50939400
    82  H          0.62438200       0.51683000       0.49060600
    83  C          0.40413000       0.89305000       0.43263100
    84  C          0.59587000       0.39305000       0.56736900
    85  H          0.47824000      -0.00784900       0.41620800
    86  H          0.52176000       0.49215100       0.58379200
    87  H          0.46130900       0.78099300       0.41932700
    88  H          0.53869100       0.28099300       0.58067300
    89  O          0.47904000       0.48265000       0.13067900
    90  O          0.52096000      -0.01735000       0.86932100
    91  O          0.79523000       0.58714000       0.14655800
    92  O          0.20477000       0.08714000       0.85344200
    93  H          0.78696800       0.60071600       0.11200900
    94  H          0.21303200       0.10071600       0.88799100
    95  C          0.62295000       0.51744000       0.16323110
    96  C          0.37705000       0.01744000       0.83676890
    97  C          0.61655000       0.48604000       0.22522110
    98  C          0.38345000      -0.01396000       0.77477890
    99  C          0.43947000       0.41306000       0.24595160
   100  C          0.56053000       0.91306000       0.75404840
   101  H          0.32669400       0.38784800       0.22130300
   102  H          0.67330600       0.88784800       0.77869700
   103  C          0.42991000       0.37737000       0.30342180
   104  C          0.57009000       0.87737000       0.69657820
   105  H          0.31061000       0.32848600       0.31731600
   106  H          0.68939000       0.82848600       0.68268400
   107  C          0.59391200       0.41337000       0.33940160
   108  C          0.40608800       0.91337000       0.66059840
   109  H          0.58786700       0.38667400       0.37780700
   110  H          0.41213300       0.88667400       0.62219300
   111  C          0.76841100       0.48867000       0.31953160
   112  C          0.23158900      -0.01133000       0.68046840
   113  H          0.87874100       0.51549300       0.34479500
   114  H          0.12125900       0.01549300       0.65520500
   115  C          0.78307000       0.52586000       0.26179140
   116  C          0.21693000       0.02586000       0.73820860
   117  H          0.90218100       0.57614000       0.24832100
   118  H          0.09781900       0.07614000       0.75167900
