data_QUHHUZ
_symmetry_space_group_name_H-M    'P1'
_symmetry_Int_Tables_number       1
loop_
_symmetry_equiv_pos_site_id
_symmetry_equiv_pos_as_xyz
1 x,y,z
_cell_length_a                   17.149714
_cell_length_b                   7.33956
_cell_length_c                   15.495412
_cell_angle_alpha                90.0
_cell_angle_beta                 109.9412
_cell_angle_gamma                90.0
loop_
_atom_site_label
_atom_site_type_symbol
_atom_site_fract_x
_atom_site_fract_y
_atom_site_fract_z
     1  Cl         0.33604400       0.58630900       0.27764400
     2  Cl         0.66395600       0.08630900       0.22235600
     3  Cl         0.66395600       0.41369100       0.72235600
     4  Cl         0.33604400       0.91369100       0.77764400
     5  Cl         0.20365400       0.60142120       0.08106600
     6  Cl         0.79634600       0.10142120       0.41893400
     7  Cl         0.79634600       0.39857880       0.91893400
     8  Cl         0.20365400       0.89857880       0.58106600
     9  N          0.43548100       0.93992000       0.37643110
    10  N          0.56451900       0.43992000       0.12356890
    11  N          0.56451900       0.06008000       0.62356890
    12  N          0.43548100       0.56008000       0.87643110
    13  H          0.43464500      -0.00947900       0.42615800
    14  H          0.56535500       0.49052100       0.07384200
    15  H          0.56535500       0.00947900       0.57384200
    16  H          0.43464500       0.50947900       0.92615800
    17  H          0.39308700       0.94829300       0.32697700
    18  H          0.60691300       0.44829300       0.17302300
    19  H          0.60691300       0.05170700       0.67302300
    20  H          0.39308700       0.55170700       0.82697700
    21  N          0.56624100       0.83992000       0.45450100
    22  N          0.43375900       0.33992000       0.04549900
    23  N          0.43375900       0.16008000       0.54549900
    24  N          0.56624100       0.66008000       0.95450100
    25  N          0.57872100       0.69492000       0.29614110
    26  N          0.42127900       0.19492000       0.20385890
    27  N          0.42127900       0.30508000       0.70385890
    28  N          0.57872100       0.80508000       0.79614110
    29  N          0.64507100       0.69592000       0.37337110
    30  N          0.35492900       0.19592000       0.12662890
    31  N          0.35492900       0.30408000       0.62662890
    32  N          0.64507100       0.80408000       0.87337110
    33  C          0.50173120       0.84943000       0.37601120
    34  C          0.49826880       0.34943000       0.12398880
    35  C          0.49826880       0.15057000       0.62398880
    36  C          0.50173120       0.65057000       0.87601120
    37  C          0.50764120       0.76233000       0.29505120
    38  C          0.49235880       0.26233000       0.20494880
    39  C          0.49235880       0.23767000       0.70494880
    40  C          0.50764120       0.73767000       0.79505120
    41  C          0.44007120       0.75573000       0.20408130
    42  C          0.55992880       0.25573000       0.29591870
    43  C          0.55992880       0.24427000       0.79591870
    44  C          0.44007120       0.74427000       0.70408130
    45  N          0.70160120       0.75033000       0.52705130
    46  N          0.29839880       0.25033000       0.97294870
    47  N          0.29839880       0.24967000       0.47294870
    48  N          0.70160120       0.74967000       0.02705130
    49  H          0.68986700       0.67877800       0.56497400
    50  H          0.31013300       0.17877800       0.93502600
    51  H          0.31013300       0.32122200       0.43502600
    52  H          0.68986700       0.82122200       0.06497400
    53  H          0.74305100       0.70658200       0.51445300
    54  H          0.25694900       0.20658200       0.98554700
    55  H          0.25694900       0.29341800       0.48554700
    56  H          0.74305100       0.79341800       0.01445300
    57  C          0.63492130       0.76243000       0.44945130
    58  C          0.36507870       0.26243000       0.05054870
    59  C          0.36507870       0.23757000       0.55054870
    60  C          0.63492130       0.73757000       0.94945130
    61  C          0.36084130       0.68563000       0.18898140
    62  C          0.63915870       0.18563000       0.31101860
    63  C          0.63915870       0.31437000       0.81101860
    64  C          0.36084130       0.81437000       0.68898140
    65  C          0.45899140       0.81743000       0.12804130
    66  C          0.54100860       0.31743000       0.37195870
    67  C          0.54100860       0.18257000       0.87195870
    68  C          0.45899140       0.68257000       0.62804130
    69  H          0.51196500       0.86120000       0.13650500
    70  H          0.48803500       0.36120000       0.36349500
    71  H          0.48803500       0.13880000       0.86349500
    72  H          0.51196500       0.63880000       0.63650500
    73  C          0.30233140       0.68633000       0.10055170
    74  C          0.69766860       0.18633000       0.39944830
    75  C          0.69766860       0.31367000       0.89944830
    76  C          0.30233140       0.81367000       0.60055170
    77  C          0.40114170       0.81463000       0.04133150
    78  C          0.59885830       0.31463000       0.45866850
    79  C          0.59885830       0.18537000       0.95866850
    80  C          0.40114170       0.68537000       0.54133150
    81  H          0.41513300       0.85619200      -0.00817700
    82  H          0.58486700       0.35619200       0.50817700
    83  H          0.58486700       0.14380800       0.00817700
    84  H          0.41513300       0.64380800       0.49182300
    85  C          0.32207180       0.75014000       0.02744170
    86  C          0.67792820       0.25014000       0.47255830
    87  C          0.67792820       0.24986000       0.97255830
    88  C          0.32207180       0.74986000       0.52744170
    89  H          0.28249800       0.74989400       0.96882900
    90  H          0.71750200       0.24989400       0.53117100
    91  H          0.71750200       0.25010600       0.03117100
    92  H          0.28249800       0.75010600       0.46882900
    93  O          0.73987110       0.53753000       0.19827110
    94  O          0.26012890       0.03753000       0.30172890
    95  O          0.26012890       0.46247000       0.80172890
    96  O          0.73987110       0.96247000       0.69827110
    97  O          0.87462120       0.64034000       0.49950120
    98  O          0.12537880       0.14034000       0.00049880
    99  O          0.12537880       0.35966000       0.50049880
   100  O          0.87462120       0.85966000      -0.00049880
   101  N          0.79156110       0.58803000       0.35223120
   102  N          0.20843890       0.08803000       0.14776880
   103  N          0.20843890       0.41197000       0.64776880
   104  N          0.79156110       0.91197000       0.85223120
   105  H          0.74490900       0.59528800       0.36131000
   106  H          0.25509100       0.09528800       0.13869000
   107  H          0.25509100       0.40471200       0.63869000
   108  H          0.74490900       0.90471200       0.86131000
   109  C          0.79801140       0.55603000       0.26861150
   110  C          0.20198860       0.05603000       0.23138850
   111  C          0.20198860       0.44397000       0.73138850
   112  C          0.79801140       0.94397000       0.76861150
   113  C          0.88953150       0.55254000       0.27815160
   114  C          0.11046850       0.05254000       0.22184840
   115  C          0.11046850       0.44746000       0.72184840
   116  C          0.88953150       0.94746000       0.77815160
   117  H          0.90376100       0.43088900       0.26203700
   118  H          0.09623900       0.93088900       0.23796300
   119  H          0.09623900       0.56911100       0.73796300
   120  H          0.90376100       0.06911100       0.76203700
   121  C          0.86627150       0.60754000       0.42019160
   122  C          0.13372850       0.10754000       0.07980840
   123  C          0.13372850       0.39246000       0.57980840
   124  C          0.86627150       0.89246000       0.92019160
   125  C          0.93489160       0.58615000       0.38003170
   126  C          0.06510840       0.08615000       0.11996830
   127  C          0.06510840       0.41385000       0.61996830
   128  C          0.93489160       0.91385000       0.88003170
   129  H          0.96833600       0.47886800       0.40707300
   130  H          0.03166400       0.97886800       0.09292700
   131  H          0.03166400       0.52113200       0.59292700
   132  H          0.96833600       0.02113200       0.90707300
   133  C          0.90648190       0.69136000       0.21472000
   134  C          0.09351810       0.19136000       0.28528000
   135  C          0.09351810       0.30864000       0.78528000
   136  C          0.90648190       0.80864000       0.71472000
   137  H          0.96041600       0.66816900       0.20951300
   138  H          0.03958400       0.16816900       0.29048700
   139  H          0.03958400       0.33183100       0.79048700
   140  H          0.96041600       0.83183100       0.70951300
   141  H          0.86495600       0.68061000       0.15396100
   142  H          0.13504400       0.18061000       0.34603900
   143  H          0.13504400       0.31939000       0.84603900
   144  H          0.86495600       0.81939000       0.65396100
   145  C         -0.01047000       0.75141000       0.39913000
   146  C          0.01047000       0.25141000       0.10087000
   147  C          0.01047000       0.24859000       0.60087000
   148  C         -0.01047000       0.74859000       0.89913000
   149  H          0.00330000       0.78270000       0.46130000
   150  H         -0.00330000       0.28270000       0.03870000
   151  H         -0.00330000       0.21730000       0.53870000
   152  H          0.00330000       0.71730000       0.96130000
   153  C          0.90463000       0.87538000       0.25024000
   154  C          0.09537000       0.37538000       0.24976000
   155  C          0.09537000       0.12462000       0.74976000
   156  C          0.90463000       0.62462000       0.75024000
   157  H          0.87581600       0.96872800       0.21198000
   158  H          0.12418400       0.46872800       0.28802000
   159  H          0.12418400       0.03127200       0.78802000
   160  H          0.87581600       0.53127200       0.71198000
   161  C          0.94554000       0.90488000       0.33916000
   162  C          0.05446000       0.40488000       0.16084000
   163  C          0.05446000       0.09512000       0.66084000
   164  C          0.94554000       0.59512000       0.83916000
   165  H          0.94657700       0.02082700       0.36357100
   166  H          0.05342300       0.52082700       0.13642900
   167  H          0.05342300       0.97917300       0.63642900
   168  H          0.94657700       0.47917300       0.86357100
   169  H          0.04630000       0.73870000       0.38630000
   170  H          0.95370000       0.23870000       0.11370000
   171  H          0.95370000       0.26130000       0.61370000
   172  H          0.04630000       0.76130000       0.88630000
