data_QUKKOY
_symmetry_space_group_name_H-M    'P1'
_symmetry_Int_Tables_number       1
loop_
_symmetry_equiv_pos_site_id
_symmetry_equiv_pos_as_xyz
1 x,y,z
_cell_length_a                   13.31555
_cell_length_b                   5.59802
_cell_length_c                   18.37877
_cell_angle_alpha                90.0
_cell_angle_beta                 110.0452
_cell_angle_gamma                90.0
loop_
_atom_site_label
_atom_site_type_symbol
_atom_site_fract_x
_atom_site_fract_y
_atom_site_fract_z
     1  Cl         0.29841400       0.65047900       0.47947300
     2  Cl         0.70158600       0.15047900       0.02052700
     3  Cl         0.70158600       0.34952100       0.52052700
     4  Cl         0.29841400       0.84952100       0.97947300
     5  N          0.34393130       0.17383000       0.34832100
     6  N          0.65606870       0.67383000       0.15167900
     7  N          0.65606870       0.82617000       0.65167900
     8  N          0.34393130       0.32617000       0.84832100
     9  N          0.48366170       0.28504000       0.30855120
    10  N          0.51633830       0.78504000       0.19144880
    11  N          0.51633830       0.71496000       0.69144880
    12  N          0.48366170       0.21496000       0.80855120
    13  C          0.44309160       0.13004000       0.34708120
    14  C          0.55690840       0.63004000       0.15291880
    15  C          0.55690840       0.86996000       0.65291880
    16  C          0.44309160       0.36996000       0.84708120
    17  C          0.50131160       0.92936000       0.38533120
    18  C          0.49868840       0.42936000       0.11466880
    19  C          0.49868840       0.07064000       0.61466880
    20  C          0.50131160       0.57064000       0.88533120
    21  H          0.57050000       0.89790000       0.38340000
    22  H          0.42950000       0.39790000       0.11660000
    23  H          0.42950000       0.10210000       0.61660000
    24  H          0.57050000       0.60210000       0.88340000
    25  C          0.45750170       0.78066000       0.42508120
    26  C          0.54249830       0.28066000       0.07491880
    27  C          0.54249830       0.21934000       0.57491880
    28  C          0.45750170       0.71934000       0.92508120
    29  H          0.49560000       0.64430000       0.45100000
    30  H          0.50440000       0.14430000       0.04900000
    31  H          0.50440000       0.35570000       0.54900000
    32  H          0.49560000       0.85570000       0.95100000
    33  C          0.35609160       0.83126000       0.42725120
    34  C          0.64390840       0.33126000       0.07274880
    35  C          0.64390840       0.16874000       0.57274880
    36  C          0.35609160       0.66874000       0.92725120
    37  C          0.30218160       0.02594000       0.38806110
    38  C          0.69781840       0.52594000       0.11193890
    39  C          0.69781840       0.97406000       0.61193890
    40  C          0.30218160       0.47406000       0.88806110
    41  H          0.23250000       0.05800000       0.38890000
    42  H          0.76750000       0.55800000       0.11110000
    43  H          0.76750000       0.94200000       0.61110000
    44  H          0.23250000       0.44200000       0.88890000
    45  H          0.54681900       0.26240000       0.30511200
    46  H          0.45318100       0.76240000       0.19488800
    47  H          0.45318100       0.73760000       0.69488800
    48  H          0.54681900       0.23760000       0.80511200
    49  H          0.44620000       0.40150000       0.28411500
    50  H          0.55380000       0.90150000       0.21588500
    51  H          0.55380000       0.59850000       0.71588500
    52  H          0.44620000       0.09850000       0.78411500
    53  O          0.20788110       0.49993000       0.27202800
    54  O          0.79211890      -0.00007000       0.22797200
    55  O          0.79211890       0.50007000       0.72797200
    56  O          0.20788110       0.00007000       0.77202800
    57  O          0.32671110       0.62183000       0.21893900
    58  O          0.67328890       0.12183000       0.28106100
    59  O          0.67328890       0.37817000       0.78106100
    60  O          0.32671110       0.87817000       0.71893900
    61  C          0.15953150       0.82184000       0.18345110
    62  C          0.84046850       0.32184000       0.31654890
    63  C          0.84046850       0.17816000       0.81654890
    64  C          0.15953150       0.67816000       0.68345110
    65  C          0.18929160      -0.01416000       0.13746110
    66  C          0.81070840       0.48584000       0.36253890
    67  C          0.81070840       0.01416000       0.86253890
    68  C          0.18929160       0.51416000       0.63746110
    69  H          0.25970000      -0.01940000       0.13560000
    70  H          0.74030000       0.48060000       0.36440000
    71  H          0.74030000       0.01940000       0.86440000
    72  H          0.25970000       0.51940000       0.63560000
    73  C          0.11812170       0.15634000       0.09430120
    74  C          0.88187830       0.65634000       0.40569880
    75  C          0.88187830       0.84366000       0.90569880
    76  C          0.11812170       0.34366000       0.59430120
    77  C          0.01562170       0.15954000       0.09865120
    78  C          0.98437830       0.65954000       0.40134880
    79  C          0.98437830       0.84046000       0.90134880
    80  C          0.01562170       0.34046000       0.59865120
    81  H          0.96540000       0.27420000       0.06940000
    82  H          0.03460000       0.77420000       0.43060000
    83  H          0.03460000       0.72580000       0.93060000
    84  H          0.96540000       0.22580000       0.56940000
    85  C         -0.01430170      -0.00066000       0.14465120
    86  C          0.01430170       0.49934000       0.35534880
    87  C          0.01430170       0.00066000       0.85534880
    88  C         -0.01430170       0.50066000       0.64465120
    89  H          0.91560000       0.00590000       0.14710000
    90  H          0.08440000       0.50590000       0.35290000
    91  H          0.08440000      -0.00590000       0.85290000
    92  H          0.91560000       0.49410000       0.64710000
    93  C          0.05715160       0.82944000       0.18712120
    94  C          0.94284840       0.32944000       0.31287880
    95  C          0.94284840       0.17056000       0.81287880
    96  C          0.05715160       0.67056000       0.68712120
    97  H          0.03640000       0.71890000       0.21860000
    98  H          0.96360000       0.21890000       0.28140000
    99  H          0.96360000       0.28110000       0.78140000
   100  H          0.03640000       0.78110000       0.71860000
   101  C          0.23915160       0.63964000       0.22653120
   102  C          0.76084840       0.13964000       0.27346880
   103  C          0.76084840       0.36036000       0.77346880
   104  C          0.23915160       0.86036000       0.72653120
   105  C          0.15056190       0.33144000       0.04364130
   106  C          0.84943810       0.83144000       0.45635870
   107  C          0.84943810       0.66856000       0.95635870
   108  C          0.15056190       0.16856000       0.54364130
   109  H          0.22720000       0.31510000       0.05290000
   110  H          0.77280000       0.81510000       0.44710000
   111  H          0.77280000       0.68490000       0.94710000
   112  H          0.22720000       0.18490000       0.55290000
   113  H          0.13530000       0.49450000       0.05620000
   114  H          0.86470000      -0.00550000       0.44380000
   115  H          0.86470000       0.50550000       0.94380000
   116  H          0.13530000       0.00550000       0.55620000
   117  H          0.11020000       0.29790000       0.98910000
   118  H          0.88980000       0.79790000       0.51090000
   119  H          0.88980000       0.70210000       0.01090000
   120  H          0.11020000       0.20210000       0.48910000
   121  H          0.26130000       0.38060000       0.29541800
   122  H          0.73870000       0.88060000       0.20458200
   123  H          0.73870000       0.61940000       0.70458200
   124  H          0.26130000       0.11940000       0.79541800
