data_QULDOQ
_symmetry_space_group_name_H-M    'P1'
_symmetry_Int_Tables_number       1
loop_
_symmetry_equiv_pos_site_id
_symmetry_equiv_pos_as_xyz
1 x,y,z
_cell_length_a                   8.6853
_cell_length_b                   13.4644
_cell_length_c                   17.4476
_cell_angle_alpha                101.242
_cell_angle_beta                 95.902
_cell_angle_gamma                103.652
loop_
_atom_site_label
_atom_site_type_symbol
_atom_site_fract_x
_atom_site_fract_y
_atom_site_fract_z
     1  S          0.28352600       0.35623400       0.00937300
     2  S          0.71647400       0.64376600       0.99062700
     3  N          0.93258000       0.27864110       0.94428200
     4  N          0.06742000       0.72135890       0.05571800
     5  N          0.66098000       0.25655120       0.89879900
     6  N          0.33902000       0.74344880       0.10120100
     7  N          0.90278000       0.96930870       0.87963890
     8  N          0.09722000       0.03069130       0.12036110
     9  C          0.19092000       0.37368140       0.92049880
    10  C          0.80908000       0.62631860       0.07950120
    11  C          0.28293000       0.42382000       0.87177850
    12  C          0.71707000       0.57618000       0.12822150
    13  H          0.39093000       0.45692000       0.88994850
    14  H          0.60907000       0.54308000       0.11005150
    15  C          0.21713000       0.42512000       0.79728000
    16  C          0.78287000       0.57488000       0.20272000
    17  H          0.28103000       0.45702000       0.76458000
    18  H          0.71897000       0.54298000       0.23542000
    19  C          0.05733000       0.37962000       0.77111860
    20  C          0.94267000       0.62038000       0.22888140
    21  H          0.01283000       0.37962000       0.72030860
    22  H         -0.01283000       0.62038000       0.27969140
    23  C          0.96217000       0.33382000       0.81972880
    24  C          0.03783000       0.66618000       0.18027120
    25  H          0.85287000       0.30532000       0.80223880
    26  H          0.14713000       0.69468000       0.19776120
    27  C          0.02762000       0.32951130       0.89456890
    28  C          0.97238000       0.67048870       0.10543110
    29  C          0.96758000       0.30956130       0.02810100
    30  C          0.03242000       0.69043870       0.97189900
    31  C          0.84777000       0.29732000       0.07477120
    32  C          0.15223000       0.70268000       0.92522880
    33  H          0.74107000       0.26952000       0.05128120
    34  H          0.25893000       0.73048000       0.94871880
    35  C          0.88677000       0.32642000       0.15636140
    36  C          0.11323000       0.67358000       0.84363860
    37  H          0.80607000       0.31602000       0.18735140
    38  H          0.19393000       0.68398000       0.81264860
    39  C          0.04254000       0.37032000       0.19206140
    40  C          0.95746000       0.62968000       0.80793860
    41  H          0.06714000       0.39092000       0.24691140
    42  H          0.93286000       0.60908000       0.75308860
    43  C          0.16173000       0.38362000       0.14648130
    44  C          0.83827000       0.61638000       0.85351870
    45  H          0.26753000       0.41432000       0.17050130
    46  H          0.73247000       0.58568000       0.82949870
    47  C          0.12592000       0.35178140       0.06509110
    48  C          0.87408000       0.64821860       0.93490890
    49  C          0.77918000       0.21184140       0.90907890
    50  C          0.22082000       0.78815860       0.09092110
    51  C          0.67987000       0.36962000       0.92442870
    52  C          0.32013000       0.63038000       0.07557130
    53  H          0.78916000       0.40382000       0.94783000
    54  H          0.21084000       0.59618000       0.05217000
    55  H          0.61048900       0.38202000       0.96254000
    56  H          0.38951100       0.61798000       0.03746000
    57  H          0.65218500       0.39702000       0.87958000
    58  H          0.34781500       0.60298000       0.12042000
    59  C          0.50108000       0.19532000       0.85858000
    60  C          0.49892000       0.80468000       0.14142000
    61  H          0.50927000       0.15469000       0.80816000
    62  H          0.49073000       0.84531000       0.19184000
    63  H          0.43544000       0.24192000       0.85082000
    64  H          0.56456000       0.75808000       0.14918000
    65  H          0.45342000       0.14929000       0.89026000
    66  H          0.54658000       0.85071000       0.10974000
    67  C          0.76408000       0.10518140       0.88722880
    68  C          0.23592000       0.89481860       0.11277120
    69  H          0.66418000       0.05931140       0.86573880
    70  H          0.33582000       0.94068860       0.13426120
    71  C          0.89628000       0.06667140       0.89714890
    72  C          0.10372000       0.93332860       0.10285110
    73  H         -0.00722000       0.11621140       0.91905890
    74  H          0.00722000       0.88378860       0.08094110
    75  C          0.05373000       0.94138000       0.89068000
    76  C          0.94627000       0.05862000       0.10932000
    77  H          0.13824000       0.00343000       0.91451000
    78  H          0.86176000      -0.00343000       0.08549000
    79  H          0.07631000       0.90958900       0.84038000
    80  H          0.92369000       0.09041100       0.15962000
    81  H          0.04637000       0.89269000       0.92452000
    82  H          0.95363000       0.10731000       0.07548000
    83  C          0.76386000       0.88188000       0.84388000
    84  C          0.23614000       0.11812000       0.15612000
    85  H          0.67114000       0.89412000       0.86551000
    86  H          0.32886000       0.10588000       0.13449000
    87  H          0.78308900       0.81817000       0.85468900
    88  H          0.21691100       0.18183000       0.14531100
    89  H          0.74598500       0.87549000       0.78767000
    90  H          0.25401500       0.12451000       0.21233000
    91  N          0.39573000       0.61062000       0.26967130
    92  N          0.60427000       0.38938000       0.73032870
    93  N          0.85272000       0.72632000       0.42235120
    94  N          0.14728000       0.27368000       0.57764880
    95  N          0.93367000       0.80492000       0.65283130
    96  N          0.06633000       0.19508000       0.34716870
    97  N          0.39372000       0.92532000       0.80168130
    98  N          0.60628000       0.07468000       0.19831870
    99  C          0.47092000       0.73296140       0.47210110
   100  C          0.52908000       0.26703860       0.52789890
   101  C          0.55892000       0.78565140       0.54822110
   102  C          0.44108000       0.21434860       0.45177890
   103  H          0.67012000       0.79903140       0.55626110
   104  H          0.32988000       0.20096860       0.44373890
   105  C          0.48392000       0.81664150       0.60911120
   106  C          0.51608000       0.18335850       0.39088880
   107  H          0.54512000       0.85148150       0.65807120
   108  H          0.45488000       0.14851850       0.34192880
   109  C          0.31442000       0.79758140       0.60057120
   110  C          0.68558000       0.20241860       0.39942880
   111  C          0.22622000       0.74442000       0.52426120
   112  C          0.77378000       0.25558000       0.47573880
   113  H          0.11502000       0.73042000       0.51637120
   114  H          0.88498000       0.26958000       0.48362880
   115  C          0.30102000       0.71402000       0.46330120
   116  C          0.69898000       0.28598000       0.53669880
   117  H          0.23992000       0.67972000       0.41420120
   118  H          0.76008000       0.32028000       0.58579880
   119  C          0.54852000       0.70051150       0.40880110
   120  C          0.45148000       0.29948850       0.59119890
   121  C          0.46273000       0.65042000       0.33184130
   122  C          0.53727000       0.34958000       0.66815870
   123  C          0.71693000       0.71562000       0.41695120
   124  C          0.28307000       0.28438000       0.58304880
   125  C          0.23712000       0.83022000       0.66387120
   126  C          0.76288000       0.16978000       0.33612880
   127  C          0.06903000       0.81492000       0.65698130
   128  C          0.93097000       0.18508000       0.34301870
   129  C          0.32413000       0.88312000       0.73990140
   130  C          0.67587000       0.11688000       0.26009860
   131  N          0.50562000       0.33112000       0.23778120
   132  N          0.49438000       0.66888000       0.76221880
   133  N          0.96352000       0.47072000       0.38748110
   134  N          0.03648000       0.52928000       0.61251890
   135  C          0.57912000       0.46632130       0.43720100
   136  C          0.42088000       0.53367870       0.56279900
   137  C          0.40782000       0.44386140       0.42747110
   138  C          0.59218000       0.55613860       0.57252890
   139  H          0.34772000       0.40612140       0.37890110
   140  H          0.65228000       0.59387860       0.62109890
   141  C          0.66752000       0.52381140       0.51294110
   142  C          0.33248000       0.47618860       0.48705890
   143  H          0.77882000       0.53896140       0.52094110
   144  H          0.22118000       0.46103860       0.47905890
   145  C          0.65662000       0.43246140       0.37542110
   146  C          0.34338000       0.56753860       0.62457890
   147  C          0.57122000       0.37582000       0.29932120
   148  C          0.42878000       0.62418000       0.70067880
   149  C          0.82752000       0.45402000       0.38296110
   150  C          0.17248000       0.54598000       0.61703890
   151  N          0.35344000       0.89972000       0.33352000
   152  N          0.64656000       0.10028000       0.66648000
   153  N          0.86907000       0.88742000       0.22572000
   154  N          0.13093000       0.11258000       0.77428000
   155  C          0.03793000       0.96262000       0.42503140
   156  C          0.96207000       0.03738000       0.57496860
   157  C          0.15343000       0.98632000       0.49517150
   158  C          0.84657000       0.01368000       0.50482850
   159  H          0.25503000       0.97652000       0.49109150
   160  H          0.74497000       0.02348000       0.50890850
   161  C          0.88217000       0.97772000       0.43321150
   162  C          0.11783000       0.02228000       0.56678850
   163  H          0.80487000       0.96232000       0.38855150
   164  H          0.19513000       0.03768000       0.61144850
   165  C          0.07433000       0.92652000       0.35144150
   166  C          0.92567000       0.07348000       0.64855850
   167  C          0.22844000       0.91082000       0.34182000
   168  C          0.77156000       0.08918000       0.65818000
   169  C          0.95956000       0.90342000       0.28092000
   170  C          0.04044000       0.09658000       0.71908000
   171  O          0.46672100       0.06041600       0.01191000
   172  O          0.53327900       0.93958400       0.98809000
