data_QUPNEU
_symmetry_space_group_name_H-M    'P1'
_symmetry_Int_Tables_number       1
loop_
_symmetry_equiv_pos_site_id
_symmetry_equiv_pos_as_xyz
1 x,y,z
_cell_length_a                   10.5953
_cell_length_b                   12.8332
_cell_length_c                   8.5862
_cell_angle_alpha                92.562
_cell_angle_beta                 112.962
_cell_angle_gamma                83.392
loop_
_atom_site_label
_atom_site_type_symbol
_atom_site_fract_x
_atom_site_fract_y
_atom_site_fract_z
     1  I          0.00000000       0.00000000      -0.00000000
     2  I          0.27120400       0.97976800       0.28134400
     3  I          0.72879600       0.02023200       0.71865600
     4  O          0.35163000       0.54772000       0.56603000
     5  O          0.64837000       0.45228000       0.43397000
     6  O          0.31743000       0.39862000       0.08003000
     7  O          0.68257000       0.60138000       0.91997000
     8  C          0.35914000       0.44663000       0.62244000
     9  C          0.64086000       0.55337000       0.37756000
    10  C          0.38234000       0.36173000       0.52655000
    11  C          0.61766000       0.63827000       0.47345000
    12  C          0.38944000       0.26133000       0.58005000
    13  C          0.61056000       0.73867000       0.41995000
    14  C          0.37554000       0.24043000       0.73395000
    15  C          0.62446000       0.75957000       0.26605000
    16  C          0.38184000       0.13863000       0.79606000
    17  C          0.61816000       0.86137000       0.20394000
    18  C          0.36564000       0.12803000       0.94546000
    19  C          0.63436000       0.87197000       0.05454000
    20  C          0.34334000       0.21444000       0.04085000
    21  C          0.65666000       0.78556000       0.95915000
    22  C          0.33784000       0.31293000      -0.01655000
    23  C          0.66216000       0.68707000       0.01655000
    24  C          0.35304000       0.32743000       0.82935000
    25  C          0.64696000       0.67257000       0.17065000
    26  C          0.34563000       0.43003000       0.77234000
    27  C          0.65437000       0.56997000       0.22766000
    28  C          0.32463000       0.51573000       0.87434000
    29  C          0.67537000       0.48427000       0.12566000
    30  C          0.31174000       0.49903000       0.02474000
    31  C          0.68826000       0.50097000       0.97526000
    32  C          0.29304000       0.58453000       0.12385000
    33  C          0.70696000       0.41547000       0.87615000
    34  C          0.28724000       0.68393000       0.07045000
    35  C          0.71276000       0.31607000       0.92955000
    36  C          0.29944000       0.70573000       0.91565000
    37  C          0.70056000       0.29427000       0.08435000
    38  C          0.29324000       0.80673000       0.85395000
    39  C          0.70676000       0.19327000       0.14605000
    40  C          0.30524000       0.81833000       0.70276000
    41  C          0.69476000       0.18167000       0.29724000
    42  C          0.32614000       0.73153000       0.60595000
    43  C          0.67386000       0.26847000       0.39405000
    44  C          0.33284000       0.63323000       0.66375000
    45  C          0.66716000       0.36677000       0.33625000
    46  C          0.31913000       0.61813000       0.81854000
    47  C          0.68087000       0.38187000       0.18146000
    48  H          0.39240000       0.37400000       0.42180000
    49  H          0.60760000       0.62600000       0.57820000
    50  H          0.40510000       0.20210000       0.51200000
    51  H          0.59490000       0.79790000       0.48800000
    52  H          0.39810000       0.07650000       0.73350000
    53  H          0.60190000       0.92350000       0.26650000
    54  H          0.37080000       0.05700000      -0.01310000
    55  H          0.62920000       0.94300000       0.01310000
    56  H          0.33200000       0.20500000       0.14690000
    57  H          0.66800000       0.79500000       0.85310000
    58  H          0.28390000       0.57200000       0.22910000
    59  H          0.71610000       0.42800000       0.77090000
    60  H          0.27520000       0.74340000       0.14070000
    61  H          0.72480000       0.25660000       0.85930000
    62  H          0.27950000       0.86850000       0.91820000
    63  H          0.72050000       0.13150000       0.08180000
    64  H          0.29980000       0.88920000       0.66160000
    65  H          0.70020000       0.11080000       0.33840000
    66  H          0.33520000       0.74160000       0.49970000
    67  H          0.66480000       0.25840000       0.50030000
    68  O          0.01672000       0.57232000       0.24193000
    69  O         -0.01672000       0.42768000       0.75807000
    70  C          0.04274000       0.16683000       0.47655000
    71  C          0.95726000       0.83317000       0.52345000
    72  C          0.03684000       0.26733000       0.41305000
    73  C          0.96316000       0.73267000       0.58695000
    74  C          0.05004000       0.28723000       0.25805000
    75  C          0.94996000       0.71277000       0.74195000
    76  C          0.04434000       0.38713000       0.20245000
    77  C          0.95566000       0.61287000       0.79755000
    78  C          0.02324000       0.47243000       0.29874000
    79  C          0.97676000       0.52757000       0.70126000
    80  C          0.01053000       0.45703000       0.45014000
    81  C         -0.01053000       0.54297000       0.54986000
    82  C          0.01653000       0.35503000       0.50824000
    83  C         -0.01653000       0.64497000       0.49176000
    84  C         -0.00286000       0.65823000       0.33714000
    85  C          0.00286000       0.34177000       0.66286000
    86  C         -0.00856000       0.75673000       0.27725000
    87  C          0.00856000       0.24327000       0.72275000
    88  C          0.02894000       0.15683000       0.62785000
    89  C          0.97106000       0.84317000       0.37215000
    90  H          0.03660000       0.10610000       0.40330000
    91  H          0.96340000       0.89390000       0.59670000
    92  H          0.06320000       0.22770000       0.18990000
    93  H          0.93680000       0.77230000       0.81010000
    94  H          0.05500000       0.39860000       0.09770000
    95  H          0.94500000       0.60140000       0.90230000
    96  H          0.00090000       0.76540000       0.17080000
    97  H         -0.00090000       0.23460000       0.82920000
    98  H          0.03410000       0.08620000       0.66770000
    99  H          0.96590000       0.91380000       0.33230000
