data_QUSPAY
_symmetry_space_group_name_H-M    'P1'
_symmetry_Int_Tables_number       1
loop_
_symmetry_equiv_pos_site_id
_symmetry_equiv_pos_as_xyz
1 x,y,z
_cell_length_a                   12.7155
_cell_length_b                   9.0024
_cell_length_c                   15.9987
_cell_angle_alpha                90.0
_cell_angle_beta                 110.073
_cell_angle_gamma                90.0
loop_
_atom_site_label
_atom_site_type_symbol
_atom_site_fract_x
_atom_site_fract_y
_atom_site_fract_z
     1  S          0.93444600       0.22096800       0.20517500
     2  S          0.06555400       0.72096800       0.29482500
     3  S          0.06555400       0.77903200       0.79482500
     4  S          0.93444600       0.27903200       0.70517500
     5  Cl         0.14152700       0.16033100       0.48477600
     6  Cl         0.85847300       0.66033100       0.01522400
     7  Cl         0.85847300       0.83966900       0.51522400
     8  Cl         0.14152700       0.33966900       0.98477600
     9  Cl         0.70326800       0.86115200       0.29089600
    10  Cl         0.29673200       0.36115200       0.20910400
    11  Cl         0.29673200       0.13884800       0.70910400
    12  Cl         0.70326800       0.63884800       0.79089600
    13  Cl         0.53582700       0.09519100       0.22767600
    14  Cl         0.46417300       0.59519100       0.27232400
    15  Cl         0.46417300       0.90480900       0.77232400
    16  Cl         0.53582700       0.40480900       0.72767600
    17  Cl         0.63895800       0.97021890       0.11410600
    18  Cl         0.36104200       0.47021890       0.38589400
    19  Cl         0.36104200       0.02978110       0.88589400
    20  Cl         0.63895800       0.52978110       0.61410600
    21  O          0.90581190       0.36992000       0.17376150
    22  O          0.09418810       0.86992000       0.32623850
    23  O          0.09418810       0.63008000       0.82623850
    24  O          0.90581190       0.13008000       0.67376150
    25  O          0.97729180       0.12682000       0.15224150
    26  O          0.02270820       0.62682000       0.34775850
    27  O          0.02270820       0.87318000       0.84775850
    28  O          0.97729180       0.37318000       0.65224150
    29  N          0.82361190       0.13722000       0.20827150
    30  N          0.17638810       0.63722000       0.29172850
    31  N          0.17638810       0.86278000       0.79172850
    32  N          0.82361190       0.36278000       0.70827150
    33  N          0.76786170       0.22182000       0.32773140
    34  N          0.23213830       0.72182000       0.17226860
    35  N          0.23213830       0.77818000       0.67226860
    36  N          0.76786170       0.27818000       0.82773140
    37  C          0.76162000       0.13853000       0.25768170
    38  C          0.23838000       0.63853000       0.24231830
    39  C          0.23838000       0.86147000       0.74231830
    40  C          0.76162000       0.36147000       0.75768170
    41  C          0.84052000       0.35553000       0.34847170
    42  C          0.15948000       0.85553000       0.15152830
    43  C          0.15948000       0.64447000       0.65152830
    44  C          0.84052000       0.14447000       0.84847170
    45  H          0.85545300       0.38314700       0.29435400
    46  H          0.14454700       0.88314700       0.20564600
    47  H          0.14454700       0.61685300       0.70564600
    48  H          0.85545300       0.11685300       0.79435400
    49  C          0.77712000       0.48393000       0.37179180
    50  C          0.22288000       0.98393000       0.12820820
    51  C          0.22288000       0.51607000       0.62820820
    52  C          0.77712000       0.01607000       0.87179180
    53  H          0.82713700       0.56830100       0.39033900
    54  H          0.17286300       0.06830100       0.10966100
    55  H          0.17286300       0.43169900       0.60966100
    56  H          0.82713700       0.93169900       0.89033900
    57  H          0.71582700       0.51273200       0.31874700
    58  H          0.28417300       0.01273200       0.18125300
    59  H          0.28417300       0.48726800       0.68125300
    60  H          0.71582700      -0.01273200       0.81874700
    61  C          0.01282000       0.19603000       0.39379180
    62  C         -0.01282000       0.69603000       0.10620820
    63  C         -0.01282000       0.80397000       0.60620820
    64  C          0.01282000       0.30397000       0.89379180
    65  H          0.96565000       0.10703100       0.38341100
    66  H          0.03435000       0.60703100       0.11658900
    67  H          0.03435000       0.89296900       0.61658900
    68  H          0.96565000       0.39296900       0.88341100
    69  C          0.73073000       0.44803000       0.44422000
    70  C          0.26927000       0.94803000       0.05578000
    71  C          0.26927000       0.55197000       0.55578000
    72  C          0.73073000       0.05197000       0.94422000
    73  H          0.68492300       0.53000500       0.45124100
    74  H          0.31507700       0.03000500       0.04875900
    75  H          0.31507700       0.46999500       0.54875900
    76  H          0.68492300       0.96999500       0.95124100
    77  H          0.79177200       0.43446900       0.50010800
    78  H          0.20822800       0.93446900      -0.00010800
    79  H          0.20822800       0.56553100       0.49989200
    80  H          0.79177200       0.06553100       0.00010800
    81  C          0.72512000       0.18103000       0.39994180
    82  C          0.27488000       0.68103000       0.10005820
    83  C          0.27488000       0.81897000       0.60005820
    84  C          0.72512000       0.31897000       0.89994180
    85  H          0.78750600       0.15462900       0.45283100
    86  H          0.21249400       0.65462900       0.04716900
    87  H          0.21249400       0.84537100       0.54716900
    88  H          0.78750600       0.34537100       0.95283100
    89  H          0.67669900       0.09491600       0.38194200
    90  H          0.32330100       0.59491600       0.11805800
    91  H          0.32330100       0.90508400       0.61805800
    92  H          0.67669900       0.40508400       0.88194200
    93  C          0.04432000       0.22503000       0.31266190
    94  C          0.95568000       0.72503000       0.18733810
    95  C          0.95568000       0.77497000       0.68733810
    96  C          0.04432000       0.27497000       0.81266190
    97  H          0.10023600       0.15220700       0.31192800
    98  H          0.89976400       0.65220700       0.18807200
    99  H          0.89976400       0.84779300       0.68807200
   100  H          0.10023600       0.34779300       0.81192800
   101  H          0.07977400       0.32180700       0.31971800
   102  H          0.92022600       0.82180700       0.18028200
   103  H          0.92022600       0.67819300       0.68028200
   104  H          0.07977400       0.17819300       0.81971800
   105  C          0.95312000       0.32203000       0.42077180
   106  C          0.04688000       0.82203000       0.07922820
   107  C          0.04688000       0.67797000       0.57922820
   108  C          0.95312000       0.17797000       0.92077180
   109  H         -0.00023400       0.41019900       0.43182200
   110  H          0.00023400       0.91019900       0.06817800
   111  H          0.00023400       0.58980100       0.56817800
   112  H         -0.00023400       0.08980100       0.93182200
   113  H          0.94087000       0.29624500       0.47557900
   114  H          0.05913000       0.79624500       0.02442100
   115  H          0.05913000       0.70375500       0.52442100
   116  H          0.94087000       0.20375500       0.97557900
   117  C          0.66073000       0.30773000       0.42132000
   118  C          0.33927000       0.80773000       0.07868000
   119  C          0.33927000       0.69227000       0.57868000
   120  C          0.66073000       0.19227000       0.92132000
   121  H          0.63784800       0.28010200       0.47117200
   122  H          0.36215200       0.78010200       0.02882800
   123  H          0.36215200       0.71989800       0.52882800
   124  H          0.63784800       0.21989800       0.97117200
   125  H          0.59360400       0.32652800       0.37050900
   126  H          0.40639600       0.82652800       0.12949100
   127  H          0.40639600       0.67347200       0.62949100
   128  H          0.59360400       0.17347200       0.87050900
   129  C          0.66432000       0.02323000       0.22435190
   130  C          0.33568000       0.52323000       0.27564810
   131  C          0.33568000       0.97677000       0.77564810
   132  C          0.66432000       0.47677000       0.72435190
   133  C          0.44644000       0.11315000       0.52464000
   134  C          0.55356000       0.61315000       0.97536000
   135  C          0.55356000       0.88685000       0.47536000
   136  C          0.44644000       0.38685000       0.02464000
   137  H          0.40926900       0.19034100       0.54138100
   138  H          0.59073100       0.69034100       0.95861900
   139  H          0.59073100       0.80965900       0.45861900
   140  H          0.40926900       0.30965900       0.04138100
   141  C          0.54654000       0.06595000       0.58043000
   142  C          0.45346000       0.56595000       0.91957000
   143  C          0.45346000       0.93405000       0.41957000
   144  C          0.54654000       0.43405000       0.08043000
   145  H          0.57887800       0.11103900       0.63561600
   146  H          0.42112200       0.61103900       0.86438400
   147  H          0.42112200       0.88896100       0.36438400
   148  H          0.57887800       0.38896100       0.13561600
   149  C          0.40014000       0.04765000       0.44403000
   150  C          0.59986000       0.54765000       0.05597000
   151  C          0.59986000       0.95235000       0.55597000
   152  C          0.40014000       0.45235000       0.94403000
   153  H          0.33136700       0.08058600       0.40523600
   154  H          0.66863300       0.58058600       0.09476400
   155  H          0.66863300       0.91941400       0.59476400
   156  H          0.33136700       0.41941400       0.90523600
