data_QUTTAD
_symmetry_space_group_name_H-M    'P1'
_symmetry_Int_Tables_number       1
loop_
_symmetry_equiv_pos_site_id
_symmetry_equiv_pos_as_xyz
1 x,y,z
_cell_length_a                   13.31253
_cell_length_b                   13.48063
_cell_length_c                   13.96904
_cell_angle_alpha                61.9192
_cell_angle_beta                 84.5822
_cell_angle_gamma                71.9992
loop_
_atom_site_label
_atom_site_type_symbol
_atom_site_fract_x
_atom_site_fract_y
_atom_site_fract_z
     1  S          0.28460300       0.39497300       0.94523300
     2  S          0.71539700       0.60502700       0.05476700
     3  F          0.44922800       0.46554900       0.85503900
     4  F          0.55077200       0.53445100       0.14496100
     5  F          0.39012800       0.50856100       0.98461100
     6  F          0.60987200       0.49143900       0.01538900
     7  F          0.48118800       0.33030900       0.02168800
     8  F          0.51881200       0.66969100       0.97831200
     9  O          0.31932110       0.30703110       0.90830100
    10  O          0.68067890       0.69296890       0.09169900
    11  O          0.21843900       0.50862100       0.86681100
    12  O          0.78156100       0.49137900       0.13318900
    13  O          0.25289900       0.35457110       0.05533900
    14  O          0.74710100       0.64542890       0.94466100
    15  C          0.40779130       0.42601140       0.95213130
    16  C          0.59220870       0.57398860       0.04786870
    17  S          0.36678200       0.86154300       0.46043300
    18  S          0.63321800       0.13845700       0.53956700
    19  F          0.23430900       0.84536110       0.34607100
    20  F          0.76569100       0.15463890       0.65392900
    21  F          0.19650800       0.01673100       0.33740900
    22  F          0.80349200       0.98326900       0.66259100
    23  F          0.16725800       0.87282110       0.48181900
    24  F          0.83274200       0.12717890       0.51818100
    25  O          0.42834900       0.88987100       0.36589100
    26  O          0.57165100       0.11012900       0.63410900
    27  O          0.35387900       0.93507900       0.51204900
    28  O          0.64612100       0.06492100       0.48795100
    29  O          0.38906900       0.73735900       0.53377900
    30  O          0.61093100       0.26264100       0.46622100
    31  C          0.23418120       0.90127150       0.40368130
    32  C          0.76581880       0.09872850       0.59631870
    33  S          0.17508300       0.50161300       0.35805300
    34  S          0.82491700       0.49838700       0.64194700
    35  F          0.32429900       0.56552110       0.22627900
    36  F          0.67570100       0.43447890       0.77372100
    37  F          0.29949900       0.62396100       0.34858100
    38  F          0.70050100       0.37603900       0.65141900
    39  F          0.38101700       0.44244100       0.39116900
    40  F          0.61898300       0.55755900       0.60883100
    41  O          0.09934900       0.60978100       0.28531100
    42  O          0.90065100       0.39021900       0.71468900
    43  O          0.16753900       0.46894110       0.47188900
    44  O          0.83246100       0.53105890       0.52811100
    45  O          0.19292800       0.40520900       0.33284900
    46  O          0.80707200       0.59479100       0.66715100
    47  C          0.30087120       0.53594140       0.32909130
    48  C          0.69912880       0.46405860       0.67090870
    49  P          0.28481300       0.93989700       0.82293300
    50  P          0.71518700       0.06010300       0.17706700
    51  P          0.21952300       0.11636300       0.68479300
    52  P          0.78047700       0.88363700       0.31520700
    53  P          0.21275300       0.19820300       0.79122300
    54  P          0.78724700       0.80179700       0.20877700
    55  P          0.34505300       0.03503300       0.88824300
    56  P          0.65494700       0.96496700       0.11175700
    57  N          0.40467900       0.78022900       0.75430900
    58  N          0.59532100       0.21977100       0.24569100
    59  N          0.23221100       0.42211100       0.68156900
    60  N          0.76778900       0.57788900       0.31843100
    61  C          0.40572100       0.87139890       0.77226110
    62  C          0.59427900       0.12860110       0.22773890
    63  C          0.49915110       0.89900880       0.76210120
    64  C          0.50084890       0.10099120       0.23789880
    65  H          0.50080000       0.96150000       0.77290000
    66  H          0.49920000       0.03850000       0.22710000
    67  C          0.59074120       0.83473870       0.73595130
    68  C          0.40925880       0.16526130       0.26404870
    69  H          0.65330000       0.85400000       0.72910000
    70  H          0.34670000       0.14600000       0.27090000
    71  C          0.58770120       0.74210870       0.72027120
    72  C          0.41229880       0.25789130       0.27972880
    73  H          0.64840000       0.69690000       0.70420000
    74  H          0.35160000       0.30310000       0.29580000
    75  C          0.49297120       0.71755880       0.72887120
    76  C          0.50702880       0.28244120       0.27112880
    77  H          0.49010000       0.65630000       0.71680000
    78  H          0.50990000       0.34370000       0.28320000
    79  C          0.30540120       0.75073870       0.75772130
    80  C          0.69459880       0.24926130       0.24227870
    81  H          0.27420000       0.73870000       0.82570000
    82  H          0.72580000       0.26130000       0.17430000
    83  H          0.32090000       0.68010000       0.75070000
    84  H          0.67910000       0.31990000       0.24930000
    85  H          0.25690000       0.81440000       0.69900000
    86  H          0.74310000       0.18560000       0.30100000
    87  C          0.30361110       0.15372120       0.57303110
    88  C          0.69638890       0.84627880       0.42696890
    89  H          0.37230000       0.14330000       0.59890000
    90  H          0.62770000       0.85670000       0.40110000
    91  H          0.27340000       0.23440000       0.52000000
    92  H          0.72660000       0.76560000       0.48000000
    93  H          0.31010000       0.10340000       0.54040000
    94  H          0.68990000       0.89660000       0.45960000
    95  C          0.08552100       0.13512120       0.64141110
    96  C          0.91447900       0.86487880       0.35858890
    97  C          0.03749110       0.26468130       0.55780130
    98  C          0.96250890       0.73531870       0.44219870
    99  H          0.03870000       0.31450000       0.58890000
   100  H          0.96130000       0.68550000       0.41110000
   101  H          0.96570000       0.27780000       0.53770000
   102  H          0.03430000       0.72220000       0.46230000
   103  H          0.07800000       0.28290000       0.49450000
   104  H          0.92200000       0.71710000       0.50550000
   105  C          0.01997110       0.10207150       0.74196130
   106  C          0.98002890       0.89792850       0.25803870
   107  H          0.05300000       0.02190000       0.79460000
   108  H          0.94700000       0.97810000       0.20540000
   109  H          0.94990000       0.11030000       0.72130000
   110  H          0.05010000       0.88970000       0.27870000
   111  H          0.01600000       0.15330000       0.77290000
   112  H          0.98400000       0.84670000       0.22710000
   113  C          0.09574120       0.05383140       0.59059140
   114  C          0.90425880       0.94616860       0.40940860
   115  H          0.14500000       0.06910000       0.53440000
   116  H          0.85500000       0.93090000       0.46560000
   117  H          0.02790000       0.06830000       0.56000000
   118  H          0.97210000       0.93170000       0.44000000
   119  H          0.12080000       0.97310000       0.64550000
   120  H          0.87920000       0.02690000       0.35450000
   121  C          0.28667110       0.30615120       0.71480110
   122  C          0.71332890       0.69384880       0.28519890
   123  C          0.39302110       0.27584120       0.69697110
   124  C          0.60697890       0.72415880       0.30302890
   125  H          0.43070000       0.19710000       0.71910000
   126  H          0.56930000       0.80290000       0.28090000
   127  C          0.44440120       0.36152130       0.64637120
   128  C          0.55559880       0.63847870       0.35362880
   129  H          0.51560000       0.34110000       0.63280000
   130  H          0.48440000       0.65890000       0.36720000
   131  C          0.38777130       0.47773130       0.61647120
   132  C          0.61222870       0.52226870       0.38352880
   133  H          0.42080000       0.53640000       0.58450000
   134  H          0.57920000       0.46360000       0.41550000
   135  C          0.28161130       0.50528130       0.63478120
   136  C          0.71838870       0.49471870       0.36521880
   137  H          0.24320000       0.58350000       0.61420000
   138  H          0.75680000       0.41650000       0.38580000
   139  C          0.11730120       0.45924130       0.69586130
   140  C          0.88269880       0.54075870       0.30413870
   141  H          0.07990000       0.44110000       0.65360000
   142  H          0.92010000       0.55890000       0.34640000
   143  H          0.09330000       0.54260000       0.67200000
   144  H          0.90670000       0.45740000       0.32800000
   145  H          0.10430000       0.41810000       0.77120000
   146  H          0.89570000       0.58190000       0.22880000
   147  C          0.30120110       0.97313880       0.03119110
   148  C          0.69879890       0.02686120       0.96880890
   149  C          0.32405170       0.04492170       0.08006140
   150  C          0.67594830       0.95507830       0.91993860
   151  H          0.39540000       0.04810000       0.06760000
   152  H          0.60460000       0.95190000       0.93240000
   153  H          0.31510000       0.00830000       0.15680000
   154  H          0.68490000       0.99170000       0.84320000
   155  H          0.27590000       0.12350000       0.04650000
   156  H          0.72410000       0.87650000       0.95350000
   157  C          0.18582130       0.97462830       0.04195130
   158  C          0.81417870       0.02537170       0.95804870
   159  H          0.14080000       0.05460000       0.00590000
   160  H          0.85920000       0.94540000      -0.00590000
   161  H          0.17150000       0.93940000       0.11750000
   162  H          0.82850000       0.06060000       0.88250000
   163  H          0.17260000       0.93080000       0.00930000
   164  H          0.82740000       0.06920000      -0.00930000
   165  C          0.37469150       0.84603850       0.08715140
   166  C          0.62530850       0.15396150       0.91284860
   167  H          0.36110000       0.80220000       0.05470000
   168  H          0.63890000       0.19780000       0.94530000
   169  H          0.36200000       0.80990000       0.16310000
   170  H          0.63800000       0.19010000       0.83690000
   171  H          0.44700000       0.84640000       0.07870000
   172  H          0.55300000       0.15360000       0.92130000
   173  O          0.05886120       0.74102120       0.66883100
   174  O          0.94113880       0.25897880       0.33116900
   175  O          0.05539100       0.78224110       0.80056110
   176  O          0.94460900       0.21775890       0.19943890
   177  N          0.02838110       0.73474120       0.75602110
   178  N          0.97161890       0.26525880       0.24397890
   179  C          0.95746850       0.66115180       0.81328150
   180  C          0.04253150       0.33884820       0.18671850
   181  H         -0.00070000       0.58160000       0.85930000
   182  H          0.00070000       0.41840000       0.14070000
   183  H          0.91510000       0.66200000       0.76090000
   184  H          0.08490000       0.33800000       0.23910000
   185  H          0.91220000       0.69230000       0.85670000
   186  H          0.08780000       0.30770000       0.14330000
   187  O          0.05149140       0.80084130       0.02396150
   188  O          0.94850860       0.19915870       0.97603850
   189  O          0.96555880       0.67952160       0.05214120
   190  O          0.03444120       0.32047840       0.94785880
   191  N          0.04792120       0.70487140       0.04192120
   192  N          0.95207880       0.29512860       0.95807880
   193  C          0.14726160       0.61369180       0.05098150
   194  C          0.85273840       0.38630820       0.94901850
   195  H          0.15410000       0.54540000       0.12040000
   196  H          0.84590000       0.45460000       0.87960000
   197  H          0.20580000       0.64350000       0.04410000
   198  H          0.79420000       0.35650000       0.95590000
   199  H          0.14680000       0.59260000      -0.00570000
   200  H          0.85320000       0.40740000       0.00570000
