data_QUWXAI01
_symmetry_space_group_name_H-M    'P1'
_symmetry_Int_Tables_number       1
loop_
_symmetry_equiv_pos_site_id
_symmetry_equiv_pos_as_xyz
1 x,y,z
_cell_length_a                   7.199012
_cell_length_b                   23.5034
_cell_length_c                   8.121013
_cell_angle_alpha                90.0
_cell_angle_beta                 107.1132
_cell_angle_gamma                90.0
loop_
_atom_site_label
_atom_site_type_symbol
_atom_site_fract_x
_atom_site_fract_y
_atom_site_fract_z
     1  O          0.21863000       0.34392700      -0.00068190
     2  O          0.78137000       0.84392700       0.50068190
     3  O          0.78137000       0.65607300       0.00068190
     4  O          0.21863000       0.15607300       0.49931810
     5  O          0.16733000       0.43198700       0.05482000
     6  O          0.83267000       0.93198700       0.44518000
     7  O          0.83267000       0.56801300       0.94518000
     8  O          0.16733000       0.06801300       0.55482000
     9  H          0.17050000       0.45501100       0.13930000
    10  H          0.82950000       0.95501100       0.36070000
    11  H          0.82950000       0.54498900       0.86070000
    12  H          0.17050000       0.04498900       0.63930000
    13  O          0.29133000       0.48985700       0.57722000
    14  O          0.70867000       0.98985700       0.92278000
    15  O          0.70867000       0.51014300       0.42278000
    16  O          0.29133000       0.01014300       0.07722000
    17  H          0.24190000       0.52341300       0.57480000
    18  H          0.75810000       0.02341300       0.92520000
    19  H          0.75810000       0.47658700       0.42520000
    20  H          0.24190000       0.97658700       0.07480000
    21  O          0.18713000       0.49198600       0.29584190
    22  O          0.81287000       0.99198600       0.20415810
    23  O          0.81287000       0.50801400       0.70415810
    24  O          0.18713000       0.00801400       0.79584190
    25  C          0.49833000       0.29603100       0.49123000
    26  C          0.50167000       0.79603100       0.00877000
    27  C          0.50167000       0.70396900       0.50877000
    28  C          0.49833000       0.20396900      -0.00877000
    29  H          0.54890000       0.25940000       0.50830000
    30  H          0.45110000       0.75940000      -0.00830000
    31  H          0.45110000       0.74060000       0.49170000
    32  H          0.54890000       0.24060000       0.00830000
    33  C          0.51634000       0.33164100       0.62913000
    34  C          0.48366000       0.83164100       0.87087000
    35  C          0.48366000       0.66835900       0.37087000
    36  C          0.51634000       0.16835900       0.12913000
    37  H          0.57860000       0.31930000       0.74050000
    38  H          0.42140000       0.81930000       0.75950000
    39  H          0.42140000       0.68070000       0.25950000
    40  H          0.57860000       0.18070000       0.24050000
    41  C          0.44133000       0.38580900       0.60103000
    42  C          0.55867000       0.88580900       0.89897000
    43  C          0.55867000       0.61419100       0.39897000
    44  C          0.44133000       0.11419100       0.10103000
    45  H          0.45440000       0.40950000       0.69530000
    46  H          0.54560000       0.90950000       0.80470000
    47  H          0.54560000       0.59050000       0.30470000
    48  H          0.45440000       0.09050000       0.19530000
    49  C          0.34663000       0.40654800       0.43742000
    50  C          0.65337000       0.90654800       0.06258000
    51  C          0.65337000       0.59345200       0.56258000
    52  C          0.34663000       0.09345200       0.93742000
    53  C          0.32703000       0.36983800       0.29442000
    54  C          0.67297000       0.86983800       0.20558000
    55  C          0.67297000       0.63016200       0.70558000
    56  C          0.32703000       0.13016200       0.79442000
    57  C          0.40483000       0.31510900       0.32733000
    58  C          0.59517000       0.81510900       0.17267000
    59  C          0.59517000       0.68489100       0.67267000
    60  C          0.40483000       0.18489100       0.82733000
    61  H          0.39310000       0.29060000       0.23500000
    62  H          0.60690000       0.79060000       0.26500000
    63  H          0.60690000       0.70940000       0.76500000
    64  H          0.39310000       0.20940000       0.73500000
    65  C          0.23183000       0.38197900       0.10533000
    66  C          0.76817000       0.88197900       0.39467000
    67  C          0.76817000       0.61802100       0.89467000
    68  C          0.23183000       0.11802100       0.60533000
    69  C          0.27043000       0.46697900       0.43693000
    70  C          0.72957000       0.96697900       0.06307000
    71  C          0.72957000       0.53302100       0.56307000
    72  C          0.27043000       0.03302100       0.93693000
    73  N         -0.02097000       0.24808700       0.31702000
    74  N          0.02097000       0.74808700       0.18298000
    75  N          0.02097000       0.75191300       0.68298000
    76  N         -0.02097000       0.25191300       0.81702000
    77  H          0.03590000       0.22700000       0.40370000
    78  H          0.96410000       0.72700000       0.09630000
    79  H          0.96410000       0.77300000       0.59630000
    80  H          0.03590000       0.27300000       0.90370000
    81  H          0.95280000       0.23470000       0.21410000
    82  H          0.04720000       0.73470000       0.28590000
    83  H          0.04720000       0.76530000       0.78590000
    84  H          0.95280000       0.26530000       0.71410000
    85  N          0.97223000       0.39579700       0.67982000
    86  N          0.02777000       0.89579700       0.82018000
    87  N          0.02777000       0.60420300       0.32018000
    88  N          0.97223000       0.10420300       0.17982000
    89  H          0.03140000       0.37600000       0.76890000
    90  H          0.96860000       0.87600000       0.73110000
    91  H          0.96860000       0.62400000       0.23110000
    92  H          0.03140000       0.12400000       0.26890000
    93  H          0.94100000       0.43050000       0.69170000
    94  H          0.05900000       0.93050000       0.80830000
    95  H          0.05900000       0.56950000       0.30830000
    96  H          0.94100000       0.06950000       0.19170000
    97  N         -0.02367000       0.31928700       0.50479190
    98  N          0.02367000       0.81928700      -0.00479190
    99  N          0.02367000       0.68071300       0.49520810
   100  N         -0.02367000       0.18071300       0.00479190
   101  N          0.83502000       0.40585700       0.38772000
   102  N          0.16498000       0.90585700       0.11228000
   103  N          0.16498000       0.59414300       0.61228000
   104  N          0.83502000       0.09414300       0.88772000
   105  N          0.84203000       0.33188700       0.19806190
   106  N          0.15797000       0.83188700       0.30193810
   107  N          0.15797000       0.66811300       0.80193810
   108  N          0.84203000       0.16811300       0.69806190
   109  C          0.92943000       0.37293800       0.52582000
   110  C          0.07057000       0.87293800       0.97418000
   111  C          0.07057000       0.62706200       0.47418000
   112  C          0.92943000       0.12706200       0.02582000
   113  C          0.93203000       0.30077800       0.34172000
   114  C          0.06797000       0.80077800       0.15828000
   115  C          0.06797000       0.69922200       0.65828000
   116  C          0.93203000       0.19922200       0.84172000
   117  C          0.79533000       0.38381900       0.22692000
   118  C          0.20467000       0.88381900       0.27308000
   119  C          0.20467000       0.61618100       0.77308000
   120  C          0.79533000       0.11618100       0.72692000
   121  C          0.69854000       0.42194100       0.08253000
   122  C          0.30146000       0.92194100       0.41747000
   123  C          0.30146000       0.57805900       0.91747000
   124  C          0.69854000       0.07805900       0.58253000
   125  H          0.67760000       0.40190000       0.97550000
   126  H          0.32240000       0.90190000       0.52450000
   127  H          0.32240000       0.59810000       0.02450000
   128  H          0.67760000       0.09810000       0.47550000
   129  H          0.77920000       0.45450000       0.08370000
   130  H          0.22080000       0.95450000       0.41630000
   131  H          0.22080000       0.54550000       0.91630000
   132  H          0.77920000       0.04550000       0.58370000
   133  H          0.57580000       0.43410000       0.09450000
   134  H          0.42420000       0.93410000       0.40550000
   135  H          0.42420000       0.56590000       0.90550000
   136  H          0.57580000       0.06590000       0.59450000
