data_QUYXEO
_symmetry_space_group_name_H-M    'P1'
_symmetry_Int_Tables_number       1
loop_
_symmetry_equiv_pos_site_id
_symmetry_equiv_pos_as_xyz
1 x,y,z
_cell_length_a                   18.8833
_cell_length_b                   18.8833
_cell_length_c                   7.244219
_cell_angle_alpha                90.0
_cell_angle_beta                 90.0
_cell_angle_gamma                90.0
loop_
_atom_site_label
_atom_site_type_symbol
_atom_site_fract_x
_atom_site_fract_y
_atom_site_fract_z
     1  I          0.25295200       0.30544200       0.76696400
     2  I          0.74704800       0.69455800       0.76696400
     3  I          0.30544200       0.74704800       0.23303600
     4  I          0.69455800       0.25295200       0.23303600
     5  I          0.24704800       0.80544200       0.73303600
     6  I          0.75295200       0.19455800       0.73303600
     7  I          0.19455800       0.24704800       0.26696400
     8  I          0.80544200       0.75295200       0.26696400
     9  C          0.50000000       0.50000000       0.25649000
    10  C          0.50000000       0.50000000       0.74351000
    11  C          0.00000000       0.00000000       0.24351000
    12  C         -0.00000000      -0.00000000       0.75649000
    13  H          0.52580000       0.46640000       0.17600000
    14  H          0.47420000       0.53360000       0.17600000
    15  H          0.46640000       0.47420000       0.82400000
    16  H          0.53360000       0.52580000       0.82400000
    17  H          0.97420000       0.96640000       0.32400000
    18  H          0.02580000       0.03360000       0.32400000
    19  H          0.03360000       0.97420000       0.67600000
    20  H          0.96640000       0.02580000       0.67600000
    21  C          0.44662000       0.45892000       0.37476000
    22  C          0.55338000       0.54108000       0.37476000
    23  C          0.45892000       0.55338000       0.62524000
    24  C          0.54108000       0.44662000       0.62524000
    25  C          0.05338000       0.95892000       0.12524000
    26  C          0.94662000       0.04108000       0.12524000
    27  C          0.04108000       0.05338000       0.87476000
    28  C          0.95892000       0.94662000       0.87476000
    29  C          0.48753000       0.40742000       0.50166000
    30  C          0.51247000       0.59258000       0.50166000
    31  C          0.40742000       0.51247000       0.49834000
    32  C          0.59258000       0.48753000       0.49834000
    33  C          0.01247000       0.90742000      -0.00166000
    34  C          0.98753000       0.09258000      -0.00166000
    35  C          0.09258000       0.01247000       0.00166000
    36  C          0.90742000       0.98753000       0.00166000
    37  H          0.45340000       0.38150000       0.58040000
    38  H          0.54660000       0.61850000       0.58040000
    39  H          0.38150000       0.54660000       0.41960000
    40  H          0.61850000       0.45340000       0.41960000
    41  H          0.04660000       0.88150000       0.91960000
    42  H          0.95340000       0.11850000       0.91960000
    43  H          0.11850000       0.04660000       0.08040000
    44  H          0.88150000       0.95340000       0.08040000
    45  H          0.51290000       0.37230000       0.42480000
    46  H          0.48710000       0.62770000       0.42480000
    47  H          0.37230000       0.48710000       0.57520000
    48  H          0.62770000       0.51290000       0.57520000
    49  H          0.98710000       0.87230000       0.07520000
    50  H          0.01290000       0.12770000       0.07520000
    51  H          0.12770000       0.98710000       0.92480000
    52  H          0.87230000       0.01290000       0.92480000
    53  C          0.39772000       0.41862000       0.24376000
    54  C          0.60228000       0.58138000       0.24376000
    55  C          0.41862000       0.60228000       0.75624000
    56  C          0.58138000       0.39772000       0.75624000
    57  C          0.10228000       0.91862000       0.25624000
    58  C          0.89772000       0.08138000       0.25624000
    59  C          0.08138000       0.10228000       0.74376000
    60  C          0.91862000       0.89772000       0.74376000
    61  C          0.32502000       0.43442000       0.22727000
    62  C          0.67498000       0.56558000       0.22727000
    63  C          0.43442000       0.67498000       0.77273000
    64  C          0.56558000       0.32502000       0.77273000
    65  C          0.17498000       0.93442000       0.27273000
    66  C          0.82502000       0.06558000       0.27273000
    67  C          0.06558000       0.17498000       0.72727000
    68  C          0.93442000       0.82502000       0.72727000
    69  H          0.30390000       0.46770000       0.30870000
    70  H          0.69610000       0.53230000       0.30870000
    71  H          0.46770000       0.69610000       0.69130000
    72  H          0.53230000       0.30390000       0.69130000
    73  H          0.19610000       0.96770000       0.19130000
    74  H          0.80390000       0.03230000       0.19130000
    75  H          0.03230000       0.19610000       0.80870000
    76  H          0.96770000       0.80390000       0.80870000
    77  C          0.28443000       0.40203000       0.09376000
    78  C          0.71557000       0.59797000       0.09376000
    79  C          0.40203000       0.71557000       0.90624000
    80  C          0.59797000       0.28443000       0.90624000
    81  C          0.21557000       0.90203000       0.40624000
    82  C          0.78443000       0.09797000       0.40624000
    83  C          0.09797000       0.21557000       0.59376000
    84  C          0.90203000       0.78443000       0.59376000
    85  H          0.23540000       0.41310000       0.08420000
    86  H          0.76460000       0.58690000       0.08420000
    87  H          0.41310000       0.76460000       0.91580000
    88  H          0.58690000       0.23540000       0.91580000
    89  H          0.26460000       0.91310000       0.41580000
    90  H          0.73540000       0.08690000       0.41580000
    91  H          0.08690000       0.26460000       0.58420000
    92  H          0.91310000       0.73540000       0.58420000
    93  C          0.31393000       0.35343000       0.97344000
    94  C          0.68607000       0.64657000       0.97344000
    95  C          0.35343000       0.68607000       0.02656000
    96  C          0.64657000       0.31393000       0.02656000
    97  C          0.18607000       0.85343000       0.52656000
    98  C          0.81393000       0.14657000       0.52656000
    99  C          0.14657000       0.18607000       0.47344000
   100  C          0.85343000       0.81393000       0.47344000
   101  C          0.38483000       0.33453000      -0.00947000
   102  C          0.61517000       0.66547000      -0.00947000
   103  C          0.33453000       0.61517000       0.00947000
   104  C          0.66547000       0.38483000       0.00947000
   105  C          0.11517000       0.83453000       0.50947000
   106  C          0.88483000       0.16547000       0.50947000
   107  C          0.16547000       0.11517000       0.49053000
   108  C          0.83453000       0.88483000       0.49053000
   109  H          0.40520000       0.30000000       0.91150000
   110  H          0.59480000       0.70000000       0.91150000
   111  H          0.30000000       0.59480000       0.08850000
   112  H          0.70000000       0.40520000       0.08850000
   113  H          0.09480000       0.80000000       0.58850000
   114  H          0.90520000       0.20000000       0.58850000
   115  H          0.20000000       0.09480000       0.41150000
   116  H          0.80000000       0.90520000       0.41150000
   117  C          0.42503000       0.36753000       0.12616000
   118  C          0.57497000       0.63247000       0.12616000
   119  C          0.36753000       0.57497000       0.87384000
   120  C          0.63247000       0.42503000       0.87384000
   121  C          0.07497000       0.86753000       0.37384000
   122  C          0.92503000       0.13247000       0.37384000
   123  C          0.13247000       0.07497000       0.62616000
   124  C          0.86753000       0.92503000       0.62616000
   125  H          0.47340000       0.35440000       0.13880000
   126  H          0.52660000       0.64560000       0.13880000
   127  H          0.35440000       0.52660000       0.86120000
   128  H          0.64560000       0.47340000       0.86120000
   129  H          0.02660000       0.85440000       0.36120000
   130  H          0.97340000       0.14560000       0.36120000
   131  H          0.14560000       0.02660000       0.63880000
   132  H          0.85440000       0.97340000       0.63880000
   133  C          0.45265000       0.11824000       0.70481200
   134  C          0.54735000       0.88176000       0.70481200
   135  C          0.11824000       0.54735000       0.29518800
   136  C          0.88176000       0.45265000       0.29518800
   137  C          0.04735000       0.61824000       0.79518800
   138  C          0.95265000       0.38176000       0.79518800
   139  C          0.38176000       0.04735000       0.20481200
   140  C          0.61824000       0.95265000       0.20481200
   141  H          0.43840000       0.09030000       0.80730000
   142  H          0.56160000       0.90970000       0.80730000
   143  H          0.09030000       0.56160000       0.19270000
   144  H          0.90970000       0.43840000       0.19270000
   145  H          0.06160000       0.59030000       0.69270000
   146  H          0.93840000       0.40970000       0.69270000
   147  H          0.40970000       0.06160000       0.30730000
   148  H          0.59030000       0.93840000       0.30730000
   149  C          0.51845000       0.10965000       0.62571500
   150  C          0.48155000       0.89035000       0.62571500
   151  C          0.10965000       0.48155000       0.37428500
   152  C          0.89035000       0.51845000       0.37428500
   153  C          0.98155000       0.60965000       0.87428500
   154  C          0.01845000       0.39035000       0.87428500
   155  C          0.39035000       0.98155000       0.12571500
   156  C          0.60965000       0.01845000       0.12571500
   157  H          0.55010000       0.07480000       0.67190000
   158  H          0.44990000       0.92520000       0.67190000
   159  H          0.07480000       0.44990000       0.32810000
   160  H          0.92520000       0.55010000       0.32810000
   161  H          0.94990000       0.57480000       0.82810000
   162  H          0.05010000       0.42520000       0.82810000
   163  H          0.42520000       0.94990000       0.17190000
   164  H          0.57480000       0.05010000       0.17190000
   165  C          0.53724000       0.15004000       0.48521300
   166  C          0.46276000       0.84996000       0.48521300
   167  C          0.15004000       0.46276000       0.51478700
   168  C          0.84996000       0.53724000       0.51478700
   169  C          0.96276000       0.65004000       0.01478700
   170  C          0.03724000       0.34996000       0.01478700
   171  C          0.34996000       0.96276000      -0.01478700
   172  C          0.65004000       0.03724000      -0.01478700
   173  H          0.58310000       0.14490000       0.43350000
   174  H          0.41690000       0.85510000       0.43350000
   175  H          0.14490000       0.41690000       0.56650000
   176  H          0.85510000       0.58310000       0.56650000
   177  H          0.91690000       0.64490000       0.06650000
   178  H          0.08310000       0.35510000       0.06650000
   179  H          0.35510000       0.91690000       0.93350000
   180  H          0.64490000       0.08310000       0.93350000
   181  C          0.49184000       0.19924000       0.41271000
   182  C          0.50816000       0.80076000       0.41271000
   183  C          0.19924000       0.50816000       0.58729000
   184  C          0.80076000       0.49184000       0.58729000
   185  C          0.00816000       0.69924000       0.08729000
   186  C          0.99184000       0.30076000       0.08729000
   187  C          0.30076000       0.00816000       0.91271000
   188  C          0.69924000       0.99184000       0.91271000
   189  H          0.50550000       0.22680000       0.30890000
   190  H          0.49450000       0.77320000       0.30890000
   191  H          0.22680000       0.49450000       0.69110000
   192  H          0.77320000       0.50550000       0.69110000
   193  H         -0.00550000       0.72680000       0.19110000
   194  H          0.00550000       0.27320000       0.19110000
   195  H          0.27320000      -0.00550000       0.80890000
   196  H          0.72680000       0.00550000       0.80890000
   197  C          0.42654000       0.20844000       0.49091100
   198  C          0.57346000       0.79156000       0.49091100
   199  C          0.20844000       0.57346000       0.50908900
   200  C          0.79156000       0.42654000       0.50908900
   201  C          0.07346000       0.70844000       0.00908900
   202  C          0.92654000       0.29156000       0.00908900
   203  C          0.29156000       0.07346000      -0.00908900
   204  C          0.70844000       0.92654000      -0.00908900
   205  H          0.39470000       0.24320000       0.44450000
   206  H          0.60530000       0.75680000       0.44450000
   207  H          0.24320000       0.60530000       0.55550000
   208  H          0.75680000       0.39470000       0.55550000
   209  H          0.10530000       0.74320000       0.05550000
   210  H          0.89470000       0.25680000       0.05550000
   211  H          0.25680000       0.10530000       0.94450000
   212  H          0.74320000       0.89470000       0.94450000
   213  C          0.40855000       0.16814000       0.63191400
   214  C          0.59145000       0.83186000       0.63191400
   215  C          0.16814000       0.59145000       0.36808600
   216  C          0.83186000       0.40855000       0.36808600
   217  C          0.09145000       0.66814000       0.86808600
   218  C          0.90855000       0.33186000       0.86808600
   219  C          0.33186000       0.09145000       0.13191400
   220  C          0.66814000       0.90855000       0.13191400
   221  H          0.36280000       0.17400000       0.68490000
   222  H          0.63720000       0.82600000       0.68490000
   223  H          0.17400000       0.63720000       0.31510000
   224  H          0.82600000       0.36280000       0.31510000
   225  H          0.13720000       0.67400000       0.81510000
   226  H          0.86280000       0.32600000       0.81510000
   227  H          0.32600000       0.13720000       0.18490000
   228  H          0.67400000       0.86280000       0.18490000
