data_RACTIA
_symmetry_space_group_name_H-M    'P1'
_symmetry_Int_Tables_number       1
loop_
_symmetry_equiv_pos_site_id
_symmetry_equiv_pos_as_xyz
1 x,y,z
_cell_length_a                   10.7865
_cell_length_b                   9.6824
_cell_length_c                   19.3798
_cell_angle_alpha                90.0
_cell_angle_beta                 97.8029
_cell_angle_gamma                90.0
loop_
_atom_site_label
_atom_site_type_symbol
_atom_site_fract_x
_atom_site_fract_y
_atom_site_fract_z
     1  Cl         0.41385120       0.69009120       0.32895500
     2  Cl         0.58614880       0.19009120       0.17104500
     3  Cl         0.58614880       0.30990880       0.67104500
     4  Cl         0.41385120       0.80990880       0.82895500
     5  N          0.74642000       0.06042000       0.97169880
     6  N          0.25358000       0.56042000       0.52830120
     7  N          0.25358000       0.93958000       0.02830120
     8  N          0.74642000       0.43958000       0.47169880
     9  H          0.80480000       0.96550000       0.96750000
    10  H          0.19520000       0.46550000       0.53250000
    11  H          0.19520000       0.03450000       0.03250000
    12  H          0.80480000       0.53450000       0.46750000
    13  C          0.62473000       0.05913000       0.94877830
    14  C          0.37527000       0.55913000       0.55122170
    15  C          0.37527000       0.94087000       0.05122170
    16  C          0.62473000       0.44087000       0.44877830
    17  H          0.59100000       0.98340000       0.92320000
    18  H          0.40900000       0.48340000       0.57680000
    19  H          0.40900000       0.01660000       0.07680000
    20  H          0.59100000       0.51660000       0.42320000
    21  C          0.54713000       0.16533000       0.96150840
    22  C          0.45287000       0.66533000       0.53849160
    23  C          0.45287000       0.83467000       0.03849160
    24  C          0.54713000       0.33467000       0.46150840
    25  H          0.46240000       0.16180000       0.94420000
    26  H          0.53760000       0.66180000       0.55580000
    27  H          0.53760000       0.83820000       0.05580000
    28  H          0.46240000       0.33820000       0.44420000
    29  C          0.59492000       0.27733000       0.00004130
    30  C          0.40508000       0.77733000       0.49995870
    31  C          0.40508000       0.72267000      -0.00004130
    32  C          0.59492000       0.22267000       0.50004130
    33  C          0.72113000       0.27683000       0.02417160
    34  C          0.27887000       0.77683000       0.47582840
    35  C          0.27887000       0.72317000       0.97582840
    36  C          0.72113000       0.22317000       0.52417160
    37  H          0.75680000       0.35010000       0.05080000
    38  H          0.24320000       0.85010000       0.44920000
    39  H          0.24320000       0.64990000       0.94920000
    40  H          0.75680000       0.14990000       0.55080000
    41  C          0.79453000       0.16693000       0.00864160
    42  C          0.20547000       0.66693000       0.49135840
    43  C          0.20547000       0.83307000       0.99135840
    44  C          0.79453000       0.33307000       0.50864160
    45  H          0.87970000       0.16810000       0.02460000
    46  H          0.12030000       0.66810000       0.47540000
    47  H          0.12030000       0.83190000       0.97540000
    48  H          0.87970000       0.33190000       0.52460000
    49  C          0.50533000       0.39063000       0.01467140
    50  C          0.49467000       0.89063000       0.48532860
    51  C          0.49467000       0.60937000       0.98532860
    52  C          0.50533000       0.10937000       0.51467140
    53  H          0.44060000       0.35240000       0.04010000
    54  H          0.55940000       0.85240000       0.45990000
    55  H          0.55940000       0.64760000       0.95990000
    56  H          0.44060000       0.14760000       0.54010000
    57  C          0.55843000       0.52403000       0.05058140
    58  C          0.44157000       0.02403000       0.44941860
    59  C          0.44157000       0.47597000       0.94941860
    60  C          0.55843000       0.97597000       0.55058140
    61  H          0.64970000       0.52620000       0.05270000
    62  H          0.35030000       0.02620000       0.44730000
    63  H          0.35030000       0.47380000       0.94730000
    64  H          0.64970000       0.97380000       0.55270000
    65  C          0.52083000       0.55873000       0.12130140
    66  C          0.47917000       0.05873000       0.37869860
    67  C          0.47917000       0.44127000       0.87869860
    68  C          0.52083000       0.94127000       0.62130140
    69  C          0.40363000       0.53213000       0.13808150
    70  C          0.59637000       0.03213000       0.36191850
    71  C          0.59637000       0.46787000       0.86191850
    72  C          0.40363000       0.96787000       0.63808150
    73  H          0.34570000       0.48630000       0.10620000
    74  H          0.65430000      -0.01370000       0.39380000
    75  H          0.65430000       0.51370000       0.89380000
    76  H          0.34570000       0.01370000       0.60620000
    77  C          0.36933000       0.57263000       0.20240170
    78  C          0.63067000       0.07263000       0.29759830
    79  C          0.63067000       0.42737000       0.79759830
    80  C          0.36933000       0.92737000       0.70240170
    81  H          0.28960000       0.55380000       0.21340000
    82  H          0.71040000       0.05380000       0.28660000
    83  H          0.71040000       0.44620000       0.78660000
    84  H          0.28960000       0.94620000       0.71340000
    85  C          0.45543000       0.64013000       0.24851150
    86  C          0.54457000       0.14013000       0.25148850
    87  C          0.54457000       0.35987000       0.75148850
    88  C          0.45543000       0.85987000       0.74851150
    89  C          0.57253000       0.66904000       0.23280180
    90  C          0.42747000       0.16904000       0.26719820
    91  C          0.42747000       0.33096000       0.76719820
    92  C          0.57253000       0.83096000       0.73280180
    93  H          0.63010000       0.71550000       0.26460000
    94  H          0.36990000       0.21550000       0.23540000
    95  H          0.36990000       0.28450000       0.73540000
    96  H          0.63010000       0.78450000       0.76460000
    97  C          0.60423000       0.62833000       0.16896170
    98  C          0.39577000       0.12833000       0.33103830
    99  C          0.39577000       0.37167000       0.83103830
   100  C          0.60423000       0.87167000       0.66896170
   101  H          0.68360000       0.64840000       0.15810000
   102  H          0.31640000       0.14840000       0.34190000
   103  H          0.31640000       0.35160000       0.84190000
   104  H          0.68360000       0.85160000       0.65810000
   105  S          0.96280120       0.15192100       0.83732400
   106  S          0.03719880       0.65192100       0.66267600
   107  S          0.03719880       0.84807900       0.16267600
   108  S          0.96280120       0.34807900       0.33732400
   109  O          0.97613000       0.26512000       0.78526120
   110  O          0.02387000       0.76512000       0.71473880
   111  O          0.02387000       0.73488000       0.21473880
   112  O          0.97613000       0.23488000       0.28526120
   113  C          0.84065000       0.04225000       0.79832000
   114  C          0.15935000       0.54225000       0.70168000
   115  C          0.15935000       0.95775000       0.20168000
   116  C          0.84065000       0.45775000       0.29832000
   117  H          0.76180000       0.08920000       0.79640000
   118  H          0.23820000       0.58920000       0.70360000
   119  H          0.23820000       0.91080000       0.20360000
   120  H          0.76180000       0.41080000       0.29640000
   121  H          0.83880000       0.95950000       0.82550000
   122  H          0.16120000       0.45950000       0.67450000
   123  H          0.16120000       0.04050000       0.17450000
   124  H          0.83880000       0.54050000       0.32550000
   125  H          0.85520000       0.01850000       0.75200000
   126  H          0.14480000       0.51850000       0.74800000
   127  H          0.14480000       0.98150000       0.24800000
   128  H          0.85520000       0.48150000       0.25200000
   129  C          0.08955000       0.03845000       0.83302000
   130  C          0.91045000       0.53845000       0.66698000
   131  C          0.91045000       0.96155000       0.16698000
   132  C          0.08955000       0.46155000       0.33302000
   133  H          0.16600000       0.08250000       0.85250000
   134  H          0.83400000       0.58250000       0.64750000
   135  H          0.83400000       0.91750000       0.14750000
   136  H          0.16600000       0.41750000       0.35250000
   137  H          0.09390000       0.01490000       0.78520000
   138  H          0.90610000       0.51490000       0.71480000
   139  H          0.90610000       0.98510000       0.21480000
   140  H          0.09390000       0.48510000       0.28520000
   141  H          0.07750000       0.95600000       0.85880000
   142  H          0.92250000       0.45600000       0.64120000
   143  H          0.92250000       0.04400000       0.14120000
   144  H          0.07750000       0.54400000       0.35880000
   145  O          0.76837190       0.75922000       0.03479120
   146  O          0.23162810       0.25922000       0.46520880
   147  O          0.23162810       0.24078000       0.96520880
   148  O          0.76837190       0.74078000       0.53479120
   149  O          0.88909190       0.85228180       0.96264890
   150  O          0.11090810       0.35228180       0.53735110
   151  O          0.11090810       0.14771820       0.03735110
   152  O          0.88909190       0.64771820       0.46264890
   153  O          0.04672000       0.67722000       0.84209890
   154  O          0.95328000       0.17722000       0.65790110
   155  O          0.95328000       0.32278000       0.15790110
   156  O          0.04672000       0.82278000       0.34209890
   157  H          0.02360000       0.70610000       0.79860000
   158  H          0.97640000       0.20610000       0.70140000
   159  H          0.97640000       0.29390000       0.20140000
   160  H          0.02360000       0.79390000       0.29860000
   161  O          0.84052000       0.66583000       0.84051880
   162  O          0.15948000       0.16583000       0.65948120
   163  O          0.15948000       0.33417000       0.15948120
   164  O          0.84052000       0.83417000       0.34051880
   165  C          0.85252000       0.75202000      -0.00131140
   166  C          0.14748000       0.25202000       0.50131140
   167  C          0.14748000       0.24798000       0.00131140
   168  C          0.85252000       0.74798000       0.49868860
   169  C          0.92692000       0.62052000      -0.00276130
   170  C          0.07308000       0.12052000       0.50276130
   171  C          0.07308000       0.37948000       0.00276130
   172  C          0.92692000       0.87948000       0.49723870
   173  C          0.95322000       0.54572000       0.05879130
   174  C          0.04678000       0.04572000       0.44120870
   175  C          0.04678000       0.45428000       0.94120870
   176  C          0.95322000       0.95428000       0.55879130
   177  H          0.92140000       0.57590000       0.09840000
   178  H          0.07860000       0.07590000       0.40160000
   179  H          0.07860000       0.42410000       0.90160000
   180  H          0.92140000       0.92410000       0.59840000
   181  C          0.97412000       0.57332000       0.93766870
   182  C          0.02588000       0.07332000       0.56233130
   183  C          0.02588000       0.42668000       0.06233130
   184  C          0.97412000       0.92668000       0.43766870
   185  C          0.94373000       0.64473000       0.86854860
   186  C          0.05627000       0.14473000       0.63145140
   187  C          0.05627000       0.35527000       0.13145140
   188  C          0.94373000       0.85527000       0.36854860
