data_RADFEI
_symmetry_space_group_name_H-M    'P1'
_symmetry_Int_Tables_number       1
loop_
_symmetry_equiv_pos_site_id
_symmetry_equiv_pos_as_xyz
1 x,y,z
_cell_length_a                   3.99682
_cell_length_b                   14.35218
_cell_length_c                   39.5493
_cell_angle_alpha                90.0
_cell_angle_beta                 90.0
_cell_angle_gamma                90.0
loop_
_atom_site_label
_atom_site_type_symbol
_atom_site_fract_x
_atom_site_fract_y
_atom_site_fract_z
     1  N          0.14937000       0.54300190       0.22372100
     2  N          0.35063000       0.95699810       0.72372100
     3  N          0.85063000       0.54300190       0.27627900
     4  N          0.64937000       0.95699810       0.77627900
     5  N          0.85063000       0.45699810       0.77627900
     6  N          0.64937000       0.04300190       0.27627900
     7  N          0.14937000       0.45699810       0.72372100
     8  N          0.35063000       0.04300190       0.22372100
     9  C          0.00000000       0.58714000       0.25000000
    10  C          0.50000000       0.91286000       0.75000000
    11  C          0.00000000       0.41286000       0.75000000
    12  C          0.50000000       0.08714000       0.25000000
    13  N          0.00000000       0.67974000       0.25000000
    14  N          0.50000000       0.82026000       0.75000000
    15  N          0.00000000       0.32026000       0.75000000
    16  N          0.50000000       0.17974000       0.25000000
    17  H          0.06780000       0.70720000       0.23281000
    18  H          0.43220000       0.79280000       0.73281000
    19  H          0.93220000       0.70720000       0.26719000
    20  H          0.56780000       0.79280000       0.76719000
    21  H          0.93220000       0.29280000       0.76719000
    22  H          0.56780000       0.20720000       0.26719000
    23  H          0.06780000       0.29280000       0.73281000
    24  H          0.43220000       0.20720000       0.23281000
    25  C          0.00000000       0.39954000       0.25000000
    26  C          0.50000000       0.10046000       0.75000000
    27  C          0.00000000       0.60046000       0.75000000
    28  C          0.50000000       0.89954000       0.25000000
    29  H          0.00000000       0.33330000       0.25000000
    30  H          0.50000000       0.16670000       0.75000000
    31  H          0.00000000       0.66670000       0.75000000
    32  H          0.50000000       0.83330000       0.25000000
    33  C          0.14308000       0.44992000       0.22390130
    34  C          0.35692000       0.05008000       0.72390130
    35  C          0.85692000       0.44992000       0.27609870
    36  C          0.64308000       0.05008000       0.77609870
    37  C          0.85692000       0.55008000       0.77609870
    38  C          0.64308000       0.94992000       0.27609870
    39  C          0.14308000       0.55008000       0.72390130
    40  C          0.35692000       0.94992000       0.22390130
    41  H          0.24000000       0.41710000       0.20550000
    42  H          0.26000000       0.08290000       0.70550000
    43  H          0.76000000       0.41710000       0.29450000
    44  H          0.74000000       0.08290000       0.79450000
    45  H          0.76000000       0.58290000       0.79450000
    46  H          0.74000000       0.91710000       0.29450000
    47  H          0.24000000       0.58290000       0.70550000
    48  H          0.26000000       0.91710000       0.20550000
    49  C          0.44538000       0.84313000       0.09102170
    50  C          0.05462000       0.65687000       0.59102170
    51  C          0.55462000       0.84313000       0.40897830
    52  C          0.94538000       0.65687000       0.90897830
    53  C          0.55462000       0.15687000       0.90897830
    54  C          0.94538000       0.34313000       0.40897830
    55  C          0.44538000       0.15687000       0.59102170
    56  C          0.05462000       0.34313000       0.09102170
    57  C          0.61218000       0.92892000       0.08855140
    58  C          0.88782000       0.57108000       0.58855140
    59  C          0.38782000       0.92892000       0.41144860
    60  C          0.11218000       0.57108000       0.91144860
    61  C          0.38782000       0.07108000       0.91144860
    62  C          0.11218000       0.42892000       0.41144860
    63  C          0.61218000       0.07108000       0.58855140
    64  C          0.88782000       0.42892000       0.08855140
    65  Cl         0.69352000      -0.00894400       0.12490300
    66  Cl         0.80648000       0.50894400       0.62490300
    67  Cl         0.30648000      -0.00894400       0.37509700
    68  Cl         0.19352000       0.50894400       0.87509700
    69  Cl         0.30648000       0.00894400       0.87509700
    70  Cl         0.19352000       0.49105600       0.37509700
    71  Cl         0.69352000       0.00894400       0.62490300
    72  Cl         0.80648000       0.49105600       0.12490300
    73  C          0.71369000       0.96373000       0.05726160
    74  C          0.78631000       0.53627000       0.55726160
    75  C          0.28631000       0.96373000       0.44273840
    76  C          0.21369000       0.53627000       0.94273840
    77  C          0.28631000       0.03627000       0.94273840
    78  C          0.21369000       0.46373000       0.44273840
    79  C          0.71369000       0.03627000       0.55726160
    80  C          0.78631000       0.46373000       0.05726160
    81  H          0.82390000       0.02220000       0.05600000
    82  H          0.67610000       0.47780000       0.55600000
    83  H          0.17610000       0.02220000       0.44400000
    84  H          0.32390000       0.47780000       0.94400000
    85  H          0.17610000       0.97780000       0.94400000
    86  H          0.32390000       0.52220000       0.44400000
    87  H          0.82390000       0.97780000       0.55600000
    88  H          0.67610000       0.52220000       0.05600000
    89  C          0.65507000       0.91373000       0.02822140
    90  C          0.84493000       0.58627000       0.52822140
    91  C          0.34493000       0.91373000       0.47177860
    92  C          0.15507000       0.58627000       0.97177860
    93  C          0.34493000       0.08627000       0.97177860
    94  C          0.15507000       0.41373000       0.47177860
    95  C          0.65507000       0.08627000       0.52822140
    96  C          0.84493000       0.41373000       0.02822140
    97  H          0.72810000       0.93740000       0.00710000
    98  H          0.77190000       0.56260000       0.50710000
    99  H          0.27190000       0.93740000       0.49290000
   100  H          0.22810000       0.56260000       0.99290000
   101  H          0.27190000       0.06260000       0.99290000
   102  H          0.22810000       0.43740000       0.49290000
   103  H          0.72810000       0.06260000       0.50710000
   104  H          0.77190000       0.43740000       0.00710000
   105  C          0.48938000       0.82853000       0.02959140
   106  C          0.01062000       0.67147000       0.52959140
   107  C          0.51062000       0.82853000       0.47040860
   108  C         -0.01062000       0.67147000       0.97040860
   109  C          0.51062000       0.17147000       0.97040860
   110  C         -0.01062000       0.32853000       0.47040860
   111  C          0.48938000       0.17147000       0.52959140
   112  C          0.01062000       0.32853000       0.02959140
   113  H          0.44680000       0.79380000       0.00960000
   114  H          0.05320000       0.70620000       0.50960000
   115  H          0.55320000       0.79380000       0.49040000
   116  H          0.94680000       0.70620000       0.99040000
   117  H          0.55320000       0.20620000       0.99040000
   118  H          0.94680000       0.29380000       0.49040000
   119  H          0.44680000       0.20620000       0.50960000
   120  H          0.05320000       0.29380000       0.00960000
   121  C          0.38788000       0.79543000       0.06086170
   122  C          0.11212000       0.70457000       0.56086170
   123  C          0.61212000       0.79543000       0.43913830
   124  C          0.88788000       0.70457000       0.93913830
   125  C          0.61212000       0.20457000       0.93913830
   126  C          0.88788000       0.29543000       0.43913830
   127  C          0.38788000       0.20457000       0.56086170
   128  C          0.11212000       0.29543000       0.06086170
   129  Cl         0.18842000       0.68716600       0.06318300
   130  Cl         0.31158000       0.81283400       0.56318300
   131  Cl         0.81158000       0.68716600       0.43681700
   132  Cl         0.68842000       0.81283400       0.93681700
   133  Cl         0.81158000       0.31283400       0.93681700
   134  Cl         0.68842000       0.18716600       0.43681700
   135  Cl         0.18842000       0.31283400       0.56318300
   136  Cl         0.31158000       0.18716600       0.06318300
   137  O          0.33445000       0.81111150       0.12137900
   138  O          0.16555000       0.68888850       0.62137900
   139  O          0.66555000       0.81111150       0.37862100
   140  O          0.83445000       0.68888850       0.87862100
   141  O          0.66555000       0.18888850       0.87862100
   142  O          0.83445000       0.31111150       0.37862100
   143  O          0.33445000       0.18888850       0.62137900
   144  O          0.16555000       0.31111150       0.12137900
   145  C          0.56188000       0.74652000       0.13715130
   146  C          0.93812000       0.75348000       0.63715130
   147  C          0.43812000       0.74652000       0.36284870
   148  C          0.06188000       0.75348000       0.86284870
   149  C          0.43812000       0.25348000       0.86284870
   150  C          0.06188000       0.24652000       0.36284870
   151  C          0.56188000       0.25348000       0.63715130
   152  C          0.93812000       0.24652000       0.13715130
   153  H          0.77440000       0.77830000       0.14280000
   154  H          0.72560000       0.72170000       0.64280000
   155  H          0.22560000       0.77830000       0.35720000
   156  H          0.27440000       0.72170000       0.85720000
   157  H          0.22560000       0.22170000       0.85720000
   158  H          0.27440000       0.27830000       0.35720000
   159  H          0.77440000       0.22170000       0.64280000
   160  H          0.72560000       0.27830000       0.14280000
   161  H          0.61190000       0.69440000       0.12150000
   162  H          0.88810000       0.80560000       0.62150000
   163  H          0.38810000       0.69440000       0.37850000
   164  H          0.11190000       0.80560000       0.87850000
   165  H          0.38810000       0.30560000       0.87850000
   166  H          0.11190000       0.19440000       0.37850000
   167  H          0.61190000       0.30560000       0.62150000
   168  H          0.88810000       0.19440000       0.12150000
   169  C          0.39978000       0.71003000       0.16872130
   170  C          0.10022000       0.78997000       0.66872130
   171  C          0.60022000       0.71003000       0.33127870
   172  C          0.89978000       0.78997000       0.83127870
   173  C          0.60022000       0.28997000       0.83127870
   174  C          0.89978000       0.21003000       0.33127870
   175  C          0.39978000       0.28997000       0.66872130
   176  C          0.10022000       0.21003000       0.16872130
   177  O          0.20755000       0.75646140       0.18584800
   178  O          0.29245000       0.74353860       0.68584800
   179  O          0.79245000       0.75646140       0.31415200
   180  O          0.70755000       0.74353860       0.81415200
   181  O          0.79245000       0.24353860       0.81415200
   182  O          0.70755000       0.25646140       0.31415200
   183  O          0.20755000       0.24353860       0.68584800
   184  O          0.29245000       0.25646140       0.18584800
   185  O          0.49686000       0.62548190       0.17559900
   186  O          0.00314000       0.87451810       0.67559900
   187  O          0.50314000       0.62548190       0.32440100
   188  O         -0.00314000       0.87451810       0.82440100
   189  O          0.50314000       0.37451810       0.82440100
   190  O         -0.00314000       0.12548190       0.32440100
   191  O          0.49686000       0.37451810       0.67559900
   192  O          0.00314000       0.12548190       0.17559900
   193  H          0.39090000       0.59930000       0.19421200
   194  H          0.10910000       0.90070000       0.69421200
   195  H          0.60910000       0.59930000       0.30578800
   196  H          0.89090000       0.90070000       0.80578800
   197  H          0.60910000       0.40070000       0.80578800
   198  H          0.89090000       0.09930000       0.30578800
   199  H          0.39090000       0.40070000       0.69421200
   200  H          0.10910000       0.09930000       0.19421200
