data_RAFDUZ
_symmetry_space_group_name_H-M    'P1'
_symmetry_Int_Tables_number       1
loop_
_symmetry_equiv_pos_site_id
_symmetry_equiv_pos_as_xyz
1 x,y,z
_cell_length_a                   8.25301
_cell_length_b                   10.7482
_cell_length_c                   12.69801
_cell_angle_alpha                81.9401
_cell_angle_beta                 78.032
_cell_angle_gamma                85.1101
loop_
_atom_site_label
_atom_site_type_symbol
_atom_site_fract_x
_atom_site_fract_y
_atom_site_fract_z
     1  P          0.68882500       0.36463300       0.18244300
     2  P          0.31117500       0.63536700       0.81755700
     3  O          0.56589180       0.29405110       0.27611100
     4  O          0.43410820       0.70594890       0.72388900
     5  O          0.67106170       0.50875110       0.19752120
     6  O          0.32893830       0.49124890       0.80247880
     7  O          0.86149140       0.30952100       0.19315900
     8  O          0.13850860       0.69047900       0.80684100
     9  O          0.64720160       0.35373150       0.07386900
    10  O          0.35279840       0.64626850       0.92613100
    11  H          0.45890000       0.32560000       0.31280000
    12  H          0.54110000       0.67440000       0.68720000
    13  H          0.74800000       0.54330000       0.23650000
    14  H          0.25200000       0.45670000       0.76350000
    15  P          0.28541400       0.41746300       0.48650300
    16  P          0.71458600       0.58253700       0.51349700
    17  O          0.11949140       0.36088120       0.55304900
    18  O          0.88050860       0.63911880       0.44695100
    19  O          0.29502140       0.55307100       0.50243100
    20  O          0.70497860       0.44692900       0.49756900
    21  O          0.42557150       0.33189100       0.53205100
    22  O          0.57442850       0.66810900       0.46794900
    23  O          0.28916160       0.39560110       0.36983900
    24  O          0.71083840       0.60439890       0.63016100
    25  H          0.09760000       0.37510000       0.62530000
    26  H          0.90240000       0.62490000       0.37470000
    27  H          0.51820000       0.37360000       0.51790000
    28  H          0.48180000       0.62640000       0.48210000
    29  P          0.09327500       0.56631400       0.17070300
    30  P          0.90672500       0.43368600       0.82929700
    31  O          0.10991160       0.43861130       0.12386120
    32  O          0.89008840       0.56138870       0.87613880
    33  O          0.93325840       0.57898140       0.25168100
    34  O          0.06674160       0.42101860       0.74831900
    35  O          0.10104160       0.67515120       0.07664900
    36  O          0.89895840       0.32484880       0.92335100
    37  O          0.24916180       0.57696150       0.21854120
    38  O          0.75083820       0.42303850       0.78145880
    39  H          0.01580000       0.38580000       0.14930000
    40  H          0.98420000       0.61420000       0.85070000
    41  H          0.18490000       0.66570000       0.01630000
    42  H          0.81510000       0.33430000       0.98370000
    43  H          0.25680000       0.51180000       0.28190000
    44  H          0.74320000       0.48820000       0.71810000
    45  S          0.24272500       0.01797300       0.22746300
    46  S          0.75727500       0.98202700       0.77253700
    47  O          0.11681150       0.95202870       0.19771100
    48  O          0.88318850       0.04797130       0.80228900
    49  O          0.24264180       0.15421110       0.20449100
    50  O          0.75735820       0.84578890       0.79550900
    51  N          0.07832160       0.72592890       0.59231100
    52  N          0.92167840       0.27407110       0.40768900
    53  H          0.07780000       0.72280000       0.66040000
    54  H          0.92220000       0.27720000       0.33960000
    55  H          0.13720000       0.66260000       0.56750000
    56  H          0.86280000       0.33740000       0.43250000
    57  H          0.97840000       0.72380000       0.58290000
    58  H          0.02160000       0.27620000       0.41710000
    59  N          0.61659180       0.68619870       0.01216110
    60  N          0.38340820       0.31380130       0.98783890
    61  H          0.71920000       0.66730000       0.98640000
    62  H          0.28080000       0.33270000       0.01360000
    63  H          0.56260000       0.69970000       0.96020000
    64  H          0.43740000       0.30030000       0.03980000
    65  H          0.57560000       0.62500000       0.05840000
    66  H          0.42440000       0.37500000       0.94160000
    67  C          0.23365180       0.97935880       0.36964110
    68  C          0.76634820       0.02064120       0.63035890
    69  C          0.16316180       0.86792870       0.42241110
    70  C          0.83683820       0.13207130       0.57758890
    71  H          0.12660000       0.81210000       0.38390000
    72  H          0.87340000       0.18790000       0.61610000
    73  C          0.14938170       0.84319880       0.53439110
    74  C          0.85061830       0.15680120       0.46560890
    75  C          0.20422000       0.92630860       0.59326120
    76  C          0.79578000       0.07369140       0.40673880
    77  H          0.19240000       0.90840000       0.66820000
    78  H          0.80760000       0.09160000       0.33180000
    79  C          0.27652000       0.03619140       0.53895130
    80  C          0.72348000       0.96380860       0.46104870
    81  H          0.31420000       0.09130000       0.57750000
    82  H          0.68580000       0.90870000       0.42250000
    83  C          0.29222000       0.06339130       0.42612130
    84  C          0.70778000       0.93660870       0.57387870
    85  H          0.34070000       0.13620000       0.38930000
    86  H          0.65930000       0.86380000       0.61070000
    87  C          0.44022180       0.95462870       0.16525110
    88  C          0.55977820       0.04537130       0.83474890
    89  C          0.44775180       0.84735870       0.11373110
    90  C          0.55224820       0.15264130       0.88626890
    91  H          0.35210000       0.80880000       0.11150000
    92  H          0.64790000       0.19120000       0.88850000
    93  C          0.60359180       0.80025870       0.06593110
    94  C          0.39640820       0.19974130       0.93406890
    95  C          0.74832000       0.85654830       0.06928150
    96  C          0.25168000       0.14345170       0.93071850
    97  H          0.85130000       0.82280000       0.03720000
    98  H          0.14870000       0.17720000       0.96280000
    99  C          0.73692000       0.96412810       0.12137170
   100  C          0.26308000       0.03587190       0.87862830
   101  H          0.83270000       0.00240000       0.12390000
   102  H          0.16730000      -0.00240000       0.87610000
   103  C          0.58282000       0.01400160       0.16930150
   104  C          0.41718000       0.98599840       0.83069850
   105  H          0.57450000       0.08590000       0.20360000
   106  H          0.42550000       0.91410000       0.79640000
