data_RAMLOK
_symmetry_space_group_name_H-M    'P1'
_symmetry_Int_Tables_number       1
loop_
_symmetry_equiv_pos_site_id
_symmetry_equiv_pos_as_xyz
1 x,y,z
_cell_length_a                   3.95812
_cell_length_b                   10.51806
_cell_length_c                   17.69961
_cell_angle_alpha                79.0485
_cell_angle_beta                 84.8864
_cell_angle_gamma                85.8434
loop_
_atom_site_label
_atom_site_type_symbol
_atom_site_fract_x
_atom_site_fract_y
_atom_site_fract_z
     1  Cl         0.38591900       0.00990300       0.37395200
     2  Cl         0.61408100      -0.00990300       0.62604800
     3  Cl         0.80241890       0.65920400       0.60323200
     4  Cl         0.19758110       0.34079600       0.39676800
     5  O          0.21443000       0.84226900       0.27468500
     6  O          0.78557000       0.15773100       0.72531500
     7  O          0.13823000       0.65413100       0.12821600
     8  O          0.86177000       0.34586900       0.87178400
     9  O          0.40133000       0.60227100       0.23788600
    10  O          0.59867000       0.39772900       0.76211400
    11  H          0.48266600       0.53924100       0.21793100
    12  H          0.51733400       0.46075900       0.78206900
    13  C          0.18444000       0.86574130       0.40477800
    14  C          0.81556000       0.13425870       0.59522200
    15  C          0.09724000       0.82543140       0.48278800
    16  C          0.90276000       0.17456860       0.51721200
    17  H          0.15598200       0.87320700       0.51970000
    18  H          0.84401800       0.12679300       0.48030000
    19  C          0.92106000       0.71285140       0.50550800
    20  C          0.07894000       0.28714860       0.49449200
    21  C          0.83546000       0.64280140       0.45217800
    22  C          0.16454000       0.35719860       0.54782200
    23  H          0.71380100       0.56656900       0.46874900
    24  H          0.28619900       0.43343100       0.53125100
    25  C          0.92766000       0.68391130       0.37427800
    26  C          0.07234000       0.31608870       0.62572200
    27  H          0.86881400       0.63567800       0.33758600
    28  H          0.13118600       0.36432200       0.66241400
    29  C          0.10563000       0.79527130       0.34977800
    30  C          0.89437000       0.20472870       0.65022200
    31  C          0.05524000       0.80142130       0.21488800
    32  C          0.94476000       0.19857870       0.78511200
    33  H          0.06317200       0.87209600       0.16910600
    34  H          0.93682800       0.12790400       0.83089400
    35  H          0.81293600       0.78935900       0.23226600
    36  H          0.18706400       0.21064100       0.76773400
    37  C          0.20674000       0.67754130       0.19014700
    38  C          0.79326000       0.32245870       0.80985300
    39  O          0.38883000       0.03891100       0.09627600
    40  O          0.61117000       0.96108900       0.90372400
    41  N          0.66683000       0.40362120       0.18142700
    42  N          0.33317000       0.59637880       0.81857300
    43  N          0.21743000       0.14727120       0.98197300
    44  N          0.78257000       0.85272880       0.01802700
    45  H          0.33733100       0.09373800       0.95600900
    46  H          0.66266900       0.90626200       0.04399100
    47  H          0.09475600       0.21276500       0.95742800
    48  H          0.90524400       0.78723500       0.04257200
    49  C          0.80854000       0.29165140       0.21853800
    50  C          0.19146000       0.70834860       0.78146200
    51  H          0.78628300       0.27388600       0.27335700
    52  H          0.21371700       0.72611400       0.72664300
    53  C         -0.01436000       0.20106140       0.18029800
    54  C          0.01436000       0.79893860       0.81970200
    55  H          0.08282000       0.12311000       0.20850300
    56  H          0.91718000       0.87689000       0.79149700
    57  C          0.01923000       0.22600120       0.09975800
    58  C         -0.01923000       0.77399880       0.90024200
    59  C          0.86894000       0.34134130       0.06108800
    60  C          0.13106000       0.65865870       0.93891200
    61  H          0.88402400       0.36100000       0.00627900
    62  H          0.11597600       0.63900000      -0.00627900
    63  C          0.69684000       0.42693140       0.10389800
    64  C          0.30316000       0.57306860       0.89610200
    65  H          0.59587900       0.50544700       0.07718800
    66  H          0.40412100       0.49455300       0.92281200
    67  C          0.22154000       0.12920120       0.05835800
    68  C          0.77846000       0.87079880       0.94164200
