data_RANMOL
_symmetry_space_group_name_H-M    'P1'
_symmetry_Int_Tables_number       1
loop_
_symmetry_equiv_pos_site_id
_symmetry_equiv_pos_as_xyz
1 x,y,z
_cell_length_a                   8.795018
_cell_length_b                   10.2542
_cell_length_c                   14.0443
_cell_angle_alpha                74.953
_cell_angle_beta                 76.743
_cell_angle_gamma                88.993
loop_
_atom_site_label
_atom_site_type_symbol
_atom_site_fract_x
_atom_site_fract_y
_atom_site_fract_z
     1  C          0.61659120       0.39221110       0.05969800
     2  C          0.38340880       0.60778890       0.94030200
     3  C          0.86236120       0.67654110       0.01322800
     4  C          0.13763880       0.32345890       0.98677200
     5  C          0.55672130       0.19784110       0.95877100
     6  C          0.44327870       0.80215890       0.04122900
     7  H          0.56720000       0.12540000       0.01680000
     8  H          0.43280000       0.87460000       0.98320000
     9  H          0.44810000       0.22170000       0.96800000
    10  H          0.55190000       0.77830000       0.03200000
    11  C          0.60978130       0.15447110       0.86236100
    12  C          0.39021870       0.84552890       0.13763900
    13  C          0.71955130       0.05532120       0.85604900
    14  C          0.28044870       0.94467880       0.14395100
    15  H          0.75980000       0.01530000       0.91190000
    16  H          0.24020000       0.98470000       0.08810000
    17  C          0.76892150       0.01612120       0.76693890
    18  C          0.23107850       0.98387880       0.23306110
    19  H          0.84140000       0.94930000       0.76350000
    20  H          0.15860000       0.05070000       0.23650000
    21  C          0.71063150       0.07613130       0.68297900
    22  C          0.28936850       0.92386870       0.31702100
    23  H          0.74330000       0.04950000       0.62330000
    24  H          0.25670000       0.95050000       0.37670000
    25  C          0.60296160       0.17648140       0.68849900
    26  C          0.39703840       0.82351860       0.31150100
    27  H          0.56470000       0.21790000       0.63200000
    28  H          0.43530000       0.78210000       0.36800000
    29  C          0.55240140       0.21501120       0.77772900
    30  C          0.44759860       0.78498880       0.22227100
    31  H          0.47980000       0.28170000       0.78100000
    32  H          0.52020000       0.71830000       0.21900000
    33  C          0.44409130       0.37663120       0.25297800
    34  C          0.55590870       0.62336880       0.74702200
    35  H          0.54690000       0.39510000       0.26200000
    36  H          0.45310000       0.60490000       0.73800000
    37  H          0.39330000       0.46160000       0.23680000
    38  H          0.60670000       0.53840000       0.76320000
    39  C          0.34803130       0.28278110       0.34891800
    40  C          0.65196870       0.71721890       0.65108200
    41  C          0.18674140       0.26791120       0.36483900
    42  C          0.81325860       0.73208880       0.63516100
    43  H          0.13690000       0.31530000       0.31550000
    44  H          0.86310000       0.68470000       0.68450000
    45  C          0.09904140       0.18268130       0.45403100
    46  C          0.90095860       0.81731870       0.54596900
    47  H         -0.00890000       0.17390000       0.46400000
    48  H          0.00890000       0.82610000       0.53600000
    49  C          0.17187150       0.11060130       0.52820900
    50  C          0.82812850       0.88939870       0.47179100
    51  H          0.11320000       0.05390000       0.58780000
    52  H          0.88680000       0.94610000       0.41220000
    53  C          0.33288150       0.12425130       0.51229900
    54  C          0.66711850       0.87574870       0.48770100
    55  H          0.38280000       0.07600000       0.56130000
    56  H          0.61720000       0.92400000       0.43870000
    57  C          0.42005140       0.20971130       0.42336900
    58  C          0.57994860       0.79028870       0.57663100
    59  H          0.52800000       0.21820000       0.41350000
    60  H          0.47200000       0.78180000       0.58650000
    61  C         -0.00987880       0.75110110       0.92728200
    62  C          0.00987880       0.24889890       0.07271800
    63  C          0.05129140       0.86971110       0.93872100
    64  C          0.94870860       0.13028890       0.06127900
    65  H          0.01040000       0.89650000      -0.00250000
    66  H         -0.01040000       0.10350000       0.00250000
    67  C          0.17093140       0.94877120       0.86526100
    68  C          0.82906860       0.05122880       0.13473900
    69  H          0.20910000       0.02770000       0.87420000
    70  H          0.79090000       0.97230000       0.12580000
    71  C          0.23235140       0.90747120       0.77811100
    72  C          0.76764860       0.09252880       0.22188900
    73  H          0.31360000       0.95860000       0.72860000
    74  H          0.68640000       0.04140000       0.27140000
    75  C          0.17411140       0.79116120       0.76398100
    76  C          0.82588860       0.20883880       0.23601900
    77  H          0.21530000       0.76580000       0.70460000
    78  H          0.78470000       0.23420000       0.29540000
    79  C          0.05370120       0.71125110       0.83839200
    80  C          0.94629880       0.28874890       0.16160800
    81  N          0.67780100       0.49282100       0.07869700
    82  N          0.32219900       0.50717900       0.92130300
    83  N          0.80167110       0.56226100       0.00335700
    84  N          0.19832890       0.43773900      -0.00335700
    85  H          0.83741700       0.53771500       0.95068800
    86  H          0.16258300       0.46228500       0.04931200
    87  O          0.81506100       0.71966800       0.08894600
    88  O          0.18493900       0.28033200       0.91105400
    89  O         -0.00162900       0.59585900       0.82486400
    90  O          0.00162900       0.40414100       0.17513600
    91  H          0.06020000       0.56471800       0.79118700
    92  H          0.93980000       0.43528200       0.20881300
    93  S          0.68242300       0.34452300       0.94564800
    94  S          0.31757700       0.65547700       0.05435200
    95  S          0.46135300       0.29405300       0.15092200
    96  S          0.53864700       0.70594700       0.84907800
    97  C          0.78242000       0.50546170       0.44335110
    98  C          0.21758000       0.49453830       0.55664890
    99  H          0.67430000       0.47580000       0.46110000
   100  H          0.32570000       0.52420000       0.53890000
   101  H          0.80230000       0.55010000       0.49180000
   102  H          0.19770000       0.44990000       0.50820000
   103  H          0.84670000       0.42880000       0.44360000
   104  H          0.15330000       0.57120000       0.55640000
   105  C          0.82029150       0.60256130       0.33882900
   106  C          0.17970850       0.39743870       0.66117100
   107  H          0.75330000       0.67990000       0.33920000
   108  H          0.24670000       0.32010000       0.66080000
   109  C         -0.01042830       0.65390170       0.30445130
   110  C          0.01042830       0.34609830       0.69554870
   111  H          0.05630000       0.57870000       0.30550000
   112  H          0.94370000       0.42130000       0.69450000
   113  H          0.01160000       0.70380000       0.34920000
   114  H         -0.01160000       0.29620000       0.65080000
   115  H          0.00820000       0.71180000       0.23680000
   116  H         -0.00820000       0.28820000       0.76320000
   117  O          0.78273100       0.53109800       0.27046600
   118  O          0.21726900       0.46890200       0.72953400
   119  H          0.77920000       0.59401800       0.21621300
   120  H          0.22080000       0.40598200       0.78378700
