data_RANNEC
_symmetry_space_group_name_H-M    'P1'
_symmetry_Int_Tables_number       1
loop_
_symmetry_equiv_pos_site_id
_symmetry_equiv_pos_as_xyz
1 x,y,z
_cell_length_a                   29.21976
_cell_length_b                   6.0806511
_cell_length_c                   16.84433
_cell_angle_alpha                90.0
_cell_angle_beta                 114.96377
_cell_angle_gamma                90.0
loop_
_atom_site_label
_atom_site_type_symbol
_atom_site_fract_x
_atom_site_fract_y
_atom_site_fract_z
     1  P          0.00000000       0.19948180       0.25000000
     2  P          0.50000000       0.69948180       0.25000000
     3  P          0.00000000       0.80051820       0.75000000
     4  P          0.50000000       0.30051820       0.75000000
     5  F          0.00000000       0.94026000       0.25000000
     6  F          0.50000000       0.44026000       0.25000000
     7  F          0.00000000       0.05974000       0.75000000
     8  F          0.50000000       0.55974000       0.75000000
     9  F          0.01195900       0.20135000       0.35047130
    10  F          0.98804100       0.20135000       0.14952870
    11  F          0.51195900       0.70135000       0.35047130
    12  F          0.48804100       0.70135000       0.14952870
    13  F          0.98804100       0.79865000       0.64952870
    14  F          0.01195900       0.79865000       0.85047130
    15  F          0.48804100       0.29865000       0.64952870
    16  F          0.51195900       0.29865000       0.85047130
    17  F          0.05926700       0.19924000       0.27414140
    18  F          0.94073300       0.19924000       0.22585860
    19  F          0.55926700       0.69924000       0.27414140
    20  F          0.44073300       0.69924000       0.22585860
    21  F          0.94073300       0.80076000       0.72585860
    22  F          0.05926700       0.80076000       0.77414140
    23  F          0.44073300       0.30076000       0.72585860
    24  F          0.55926700       0.30076000       0.77414140
    25  F          0.00000000       0.45925000       0.25000000
    26  F          0.50000000       0.95925000       0.25000000
    27  F          0.00000000       0.54075000       0.75000000
    28  F          0.50000000       0.04075000       0.75000000
    29  S          0.34746300       0.56238130       0.54775500
    30  S          0.65253700       0.56238130       0.95224500
    31  S          0.84746300       0.06238130       0.54775500
    32  S          0.15253700       0.06238130       0.95224500
    33  S          0.65253700       0.43761870       0.45224500
    34  S          0.34746300       0.43761870       0.04775500
    35  S          0.15253700       0.93761870       0.45224500
    36  S          0.84746300       0.93761870       0.04775500
    37  S          0.33725300       0.97227140       0.44746500
    38  S          0.66274700       0.97227140       0.05253500
    39  S          0.83725300       0.47227140       0.44746500
    40  S          0.16274700       0.47227140       0.05253500
    41  S          0.66274700       0.02772860       0.55253500
    42  S          0.33725300       0.02772860       0.94746500
    43  S          0.16274700       0.52772860       0.55253500
    44  S          0.83725300       0.52772860       0.94746500
    45  S          0.22904200       0.82359120       0.30443400
    46  S          0.77095800       0.82359120       0.19556600
    47  S          0.72904200       0.32359120       0.30443400
    48  S          0.27095800       0.32359120       0.19556600
    49  S          0.77095800       0.17640880       0.69556600
    50  S          0.22904200       0.17640880       0.80443400
    51  S          0.27095800       0.67640880       0.69556600
    52  S          0.72904200       0.67640880       0.80443400
    53  S          0.23402300       0.41468120       0.40156500
    54  S          0.76597700       0.41468120       0.09843500
    55  S          0.73402300       0.91468120       0.40156500
    56  S          0.26597700       0.91468120       0.09843500
    57  S          0.76597700       0.58531880       0.59843500
    58  S          0.23402300       0.58531880       0.90156500
    59  S          0.26597700       0.08531880       0.59843500
    60  S          0.73402300       0.08531880       0.90156500
    61  N          0.04105900       0.91185000       0.06363150
    62  N          0.95894100       0.91185000       0.43636850
    63  N          0.54105900       0.41185000       0.06363150
    64  N          0.45894100       0.41185000       0.43636850
    65  N          0.95894100       0.08815000       0.93636850
    66  N          0.04105900       0.08815000       0.56363150
    67  N          0.45894100       0.58815000       0.93636850
    68  N          0.54105900       0.58815000       0.56363150
    69  C          0.39429110       0.76136000       0.59121190
    70  C          0.60570890       0.76136000       0.90878810
    71  C          0.89429110       0.26136000       0.59121190
    72  C          0.10570890       0.26136000       0.90878810
    73  C          0.60570890       0.23864000       0.40878810
    74  C          0.39429110       0.23864000       0.09121190
    75  C          0.10570890       0.73864000       0.40878810
    76  C          0.89429110       0.73864000       0.09121190
    77  C          0.38996110       0.94436000       0.54662000
    78  C          0.61003890       0.94436000       0.95338000
    79  C          0.88996110       0.44436000       0.54662000
    80  C          0.11003890       0.44436000       0.95338000
    81  C          0.61003890       0.05564000       0.45338000
    82  C          0.38996110       0.05564000       0.04662000
    83  C          0.11003890       0.55564000       0.45338000
    84  C          0.88996110       0.55564000       0.04662000
    85  C          0.30949900       0.72155000       0.45604160
    86  C          0.69050100       0.72155000       0.04395840
    87  C          0.80949900       0.22155000       0.45604160
    88  C          0.19050100       0.22155000       0.04395840
    89  C          0.69050100       0.27845000       0.54395840
    90  C          0.30949900       0.27845000       0.95604160
    91  C          0.19050100       0.77845000       0.54395840
    92  C          0.80949900       0.77845000       0.95604160
    93  C          0.26393900       0.66125000       0.39692160
    94  C          0.73606100       0.66125000       0.10307840
    95  C          0.76393900       0.16125000       0.39692160
    96  C          0.23606100       0.16125000       0.10307840
    97  C          0.73606100       0.33875000       0.60307840
    98  C          0.26393900       0.33875000       0.89692160
    99  C          0.23606100       0.83875000       0.60307840
   100  C          0.76393900       0.83875000       0.89692160
   101  C          0.17724100       0.48055000       0.31698170
   102  C          0.82275900       0.48055000       0.18301830
   103  C          0.67724100      -0.01945000       0.31698170
   104  C          0.32275900      -0.01945000       0.18301830
   105  C          0.82275900       0.51945000       0.68301830
   106  C          0.17724100       0.51945000       0.81698170
   107  C          0.32275900       0.01945000       0.68301830
   108  C          0.67724100       0.01945000       0.81698170
   109  C          0.17333900       0.66745000       0.27190160
   110  C          0.82666100       0.66745000       0.22809840
   111  C          0.67333900       0.16745000       0.27190160
   112  C          0.32666100       0.16745000       0.22809840
   113  C          0.82666100       0.33255000       0.72809840
   114  C          0.17333900       0.33255000       0.77190160
   115  C          0.32666100       0.83255000       0.72809840
   116  C          0.67333900       0.83255000       0.77190160
   117  C          0.12764900       0.75065000       0.20003160
   118  C          0.87235100       0.75065000       0.29996840
   119  C          0.62764900       0.25065000       0.20003160
   120  C          0.37235100       0.25065000       0.29996840
   121  C          0.87235100       0.24935000       0.79996840
   122  C          0.12764900       0.24935000       0.70003160
   123  C          0.37235100       0.74935000       0.79996840
   124  C          0.62764900       0.74935000       0.70003160
   125  C          0.08172110       0.63936000       0.17122000
   126  C          0.91827890       0.63936000       0.32878000
   127  C          0.58172110       0.13936000       0.17122000
   128  C          0.41827890       0.13936000       0.32878000
   129  C          0.91827890       0.36064000       0.82878000
   130  C          0.08172110       0.36064000       0.67122000
   131  C          0.41827890       0.86064000       0.82878000
   132  C          0.58172110       0.86064000       0.67122000
   133  C          0.04016110       0.72547000       0.10452000
   134  C          0.95983890       0.72547000       0.39548000
   135  C          0.54016110       0.22547000       0.10452000
   136  C          0.45983890       0.22547000       0.39548000
   137  C          0.95983890       0.27453000       0.89548000
   138  C          0.04016110       0.27453000       0.60452000
   139  C          0.45983890       0.77453000       0.89548000
   140  C          0.54016110       0.77453000       0.60452000
   141  C          0.08428110       0.02027000       0.09112000
   142  C          0.91571890       0.02027000       0.40888000
   143  C          0.58428110       0.52027000       0.09112000
   144  C          0.41571890       0.52027000       0.40888000
   145  C          0.91571890      -0.02027000       0.90888000
   146  C          0.08428110      -0.02027000       0.59112000
   147  C          0.41571890       0.47973000       0.90888000
   148  C          0.58428110       0.47973000       0.59112000
   149  C          0.12808100       0.94766000       0.15849190
   150  C          0.87191900       0.94766000       0.34150810
   151  C          0.62808100       0.44766000       0.15849190
   152  C          0.37191900       0.44766000       0.34150810
   153  C          0.87191900       0.05234000       0.84150810
   154  C          0.12808100       0.05234000       0.65849190
   155  C          0.37191900       0.55234000       0.84150810
   156  C          0.62808100       0.55234000       0.65849190
   157  H          0.42180000       0.73910000       0.64470000
   158  H          0.57820000       0.73910000       0.85530000
   159  H          0.92180000       0.23910000       0.64470000
   160  H          0.07820000       0.23910000       0.85530000
   161  H          0.57820000       0.26090000       0.35530000
   162  H          0.42180000       0.26090000       0.14470000
   163  H          0.07820000       0.76090000       0.35530000
   164  H          0.92180000       0.76090000       0.14470000
   165  H          0.41430000       0.05440000       0.56740000
   166  H          0.58570000       0.05440000       0.93260000
   167  H          0.91430000       0.55440000       0.56740000
   168  H          0.08570000       0.55440000       0.93260000
   169  H          0.58570000       0.94560000       0.43260000
   170  H          0.41430000       0.94560000       0.06740000
   171  H          0.08570000       0.44560000       0.43260000
   172  H          0.91430000       0.44560000       0.06740000
   173  H          0.14950000       0.38810000       0.30250000
   174  H          0.85050000       0.38810000       0.19750000
   175  H          0.64950000       0.88810000       0.30250000
   176  H          0.35050000       0.88810000       0.19750000
   177  H          0.85050000       0.61190000       0.69750000
   178  H          0.14950000       0.61190000       0.80250000
   179  H          0.35050000       0.11190000       0.69750000
   180  H          0.64950000       0.11190000       0.80250000
   181  H          0.07950000       0.50750000       0.19730000
   182  H          0.92050000       0.50750000       0.30270000
   183  H          0.57950000       0.00750000       0.19730000
   184  H          0.42050000       0.00750000       0.30270000
   185  H          0.92050000       0.49250000       0.80270000
   186  H          0.07950000       0.49250000       0.69730000
   187  H          0.42050000      -0.00750000       0.80270000
   188  H          0.57950000      -0.00750000       0.69730000
   189  H          0.00970000       0.65020000       0.08660000
   190  H          0.99030000       0.65020000       0.41340000
   191  H          0.50970000       0.15020000       0.08660000
   192  H          0.49030000       0.15020000       0.41340000
   193  H          0.99030000       0.34980000       0.91340000
   194  H          0.00970000       0.34980000       0.58660000
   195  H          0.49030000       0.84980000       0.91340000
   196  H          0.50970000       0.84980000       0.58660000
   197  H          0.15760000       0.02950000       0.17600000
   198  H          0.84240000       0.02950000       0.32400000
   199  H          0.65760000       0.52950000       0.17600000
   200  H          0.34240000       0.52950000       0.32400000
   201  H          0.84240000       0.97050000       0.82400000
   202  H          0.15760000       0.97050000       0.67600000
   203  H          0.34240000       0.47050000       0.82400000
   204  H          0.65760000       0.47050000       0.67600000
   205  H          0.08510000       0.15170000       0.06350000
   206  H          0.91490000       0.15170000       0.43650000
   207  H          0.58510000       0.65170000       0.06350000
   208  H          0.41490000       0.65170000       0.43650000
   209  H          0.91490000       0.84830000       0.93650000
   210  H          0.08510000       0.84830000       0.56350000
   211  H          0.41490000       0.34830000       0.93650000
   212  H          0.58510000       0.34830000       0.56350000
