data_RAPLEA
_symmetry_space_group_name_H-M    'P1'
_symmetry_Int_Tables_number       1
loop_
_symmetry_equiv_pos_site_id
_symmetry_equiv_pos_as_xyz
1 x,y,z
_cell_length_a                   6.97742
_cell_length_b                   10.16683
_cell_length_c                   27.67627
_cell_angle_alpha                90.0
_cell_angle_beta                 96.4952
_cell_angle_gamma                90.0
loop_
_atom_site_label
_atom_site_type_symbol
_atom_site_fract_x
_atom_site_fract_y
_atom_site_fract_z
     1  Cl         0.65101800       0.29879500       0.70418117
     2  Cl         0.84898200       0.79879500       0.79581883
     3  Cl         0.34898200       0.70120500       0.29581883
     4  Cl         0.15101800       0.20120500       0.20418117
     5  Cl         0.59533800      -0.00859500       0.71084718
     6  Cl         0.90466200       0.49140500       0.78915282
     7  Cl         0.40466200       0.00859500       0.28915282
     8  Cl         0.09533800       0.50859500       0.21084718
     9  O          0.65702000       0.17232140       0.48418500
    10  O          0.84298000       0.67232140       0.01581500
    11  O          0.34298000       0.82767860       0.51581500
    12  O          0.15702000       0.32767860       0.98418500
    13  O          0.70913000       0.36004140       0.51992500
    14  O          0.79087000       0.86004140       0.98007500
    15  O          0.29087000       0.63995860       0.48007500
    16  O          0.20913000       0.13995860       0.01992500
    17  N          0.67612000       0.24168170       0.52060600
    18  N          0.82388000       0.74168170       0.97939400
    19  N          0.32388000       0.75831830       0.47939400
    20  N          0.17612000       0.25831830       0.02060600
    21  C          0.65993000       0.17966190       0.56799700
    22  C          0.84007000       0.67966190       0.93200300
    23  C          0.34007000       0.82033810       0.43200300
    24  C          0.15993000       0.32033810       0.06799700
    25  C          0.66343000       0.25962000       0.60845700
    26  C          0.83657000       0.75962000       0.89154300
    27  C          0.33657000       0.74038000       0.39154300
    28  C          0.16343000       0.24038000       0.10845700
    29  C          0.64553000       0.20088190       0.65295700
    30  C          0.85447000       0.70088190       0.84704300
    31  C          0.35447000       0.79911810       0.34704300
    32  C          0.14553000       0.29911810       0.15295700
    33  C          0.62463000       0.06512000       0.65591700
    34  C          0.87537000       0.56512000       0.84408300
    35  C          0.37537000       0.93488000       0.34408300
    36  C          0.12463000       0.43488000       0.15591700
    37  C          0.62493000      -0.01282000       0.61466700
    38  C          0.87507000       0.48718000       0.88533300
    39  C          0.37507000       0.01282000       0.38533300
    40  C          0.12493000       0.51282000       0.11466700
    41  C          0.64263000       0.04412000       0.57025700
    42  C          0.85737000       0.54412000       0.92974300
    43  C          0.35737000       0.95588000       0.42974300
    44  C          0.14263000       0.45588000       0.07025700
    45  H          0.67930000       0.35020000       0.60437000
    46  H          0.82070000       0.85020000       0.89563000
    47  H          0.32070000       0.64980000       0.39563000
    48  H          0.17930000       0.14980000       0.10437000
    49  H          0.61130000       0.89980000       0.61797000
    50  H          0.88870000       0.39980000       0.88203000
    51  H          0.38870000       0.10020000       0.38203000
    52  H          0.11130000       0.60020000       0.11797000
    53  H          0.64030000      -0.00821900       0.54287000
    54  H          0.85970000       0.49178100       0.95713000
    55  H          0.35970000       0.00821900       0.45713000
    56  H          0.14030000       0.50821900       0.04287000
    57  Cl         0.13987800       0.11529500       0.54176417
    58  Cl         0.36012200       0.61529500       0.95823583
    59  Cl         0.86012200       0.88470500       0.45823583
    60  Cl         0.63987800       0.38470500       0.04176417
    61  Cl         0.19771800       0.42446500       0.55079419
    62  Cl         0.30228200       0.92446500       0.94920581
    63  Cl         0.80228200       0.57553500       0.44920581
    64  Cl         0.69771800       0.07553500       0.05079419
    65  O          0.14242000       0.15949170       0.76614500
    66  O          0.35758000       0.65949170       0.73385500
    67  O          0.85758000       0.84050830       0.23385500
    68  O          0.64242000       0.34050830       0.26614500
    69  O          0.09242000       0.98517840       0.72154600
    70  O          0.40758000       0.48517840       0.77845400
    71  O          0.90758000       0.01482160       0.27845400
    72  O          0.59242000       0.51482160       0.22154600
    73  N          0.12192000       0.10362190       0.72661600
    74  N          0.37808000       0.60362190       0.77338400
    75  N          0.87808000       0.89637810       0.27338400
    76  N          0.62192000       0.39637810       0.22661600
    77  C          0.13473000       0.18302000       0.68264700
    78  C          0.36527000       0.68302000       0.81735300
    79  C          0.86527000       0.81698000       0.31735300
    80  C          0.63473000       0.31698000       0.18264700
    81  C          0.13093000       0.11832000       0.63845700
    82  C          0.36907000       0.61832000       0.86154300
    83  C          0.86907000       0.88168000       0.36154300
    84  C          0.63093000       0.38168000       0.13845700
    85  C          0.14713000       0.19368190       0.59743700
    86  C          0.35287000       0.69368190       0.90256300
    87  C          0.85287000       0.80631810       0.40256300
    88  C          0.64713000       0.30631810       0.09743700
    89  C          0.16763000       0.32982000       0.60112700
    90  C          0.33237000       0.82982000       0.89887300
    91  C          0.83237000       0.67018000       0.39887300
    92  C          0.66763000       0.17018000       0.10112700
    93  C          0.16903000       0.39142000       0.64595800
    94  C          0.33097000       0.89142000       0.85404200
    95  C          0.83097000       0.60858000       0.35404200
    96  C          0.66903000       0.10858000       0.14595800
    97  C          0.15273000       0.31782000       0.68721700
    98  C          0.34727000       0.81782000       0.81278300
    99  C          0.84727000       0.68218000       0.31278300
   100  C          0.65273000       0.18218000       0.18721700
   101  H          0.11630000       0.02520000       0.63557000
   102  H          0.38370000       0.52520000       0.86443000
   103  H          0.88370000       0.97480000       0.36443000
   104  H          0.61630000       0.47480000       0.13557000
   105  H          0.18130000       0.48120000       0.64868000
   106  H          0.31870000       0.98120000       0.85132000
   107  H          0.81870000       0.51880000       0.35132000
   108  H          0.68130000       0.01880000       0.14868000
   109  H          0.15530000       0.35920000       0.71798000
   110  H          0.34470000       0.85920000       0.78202000
   111  H          0.84470000       0.64080000       0.28202000
   112  H          0.65530000       0.14080000       0.21798000
   113  N          0.18643000       0.79026190       0.62461800
   114  N          0.31357000       0.29026190       0.87538200
   115  N          0.81357000       0.20973810       0.37538200
   116  N          0.68643000       0.70973810       0.12461800
   117  C          0.00523000       0.73193190       0.62348700
   118  C          0.49477000       0.23193190       0.87651300
   119  C         -0.00523000       0.26806810       0.37651300
   120  C          0.50523000       0.76806810       0.12348700
   121  C          0.89793000       0.70062000       0.57924700
   122  C          0.60207000       0.20062000       0.92075300
   123  C          0.10207000       0.29938000       0.42075300
   124  C          0.39793000       0.79938000       0.07924700
   125  C          0.71593000       0.64602000       0.57829800
   126  C          0.78407000       0.14602000       0.92170200
   127  C          0.28407000       0.35398000       0.42170200
   128  C          0.21593000       0.85398000       0.07829800
   129  C          0.63763000       0.62112000       0.62136800
   130  C          0.86237000       0.12112000       0.87863200
   131  C          0.36237000       0.37888000       0.37863200
   132  C          0.13763000       0.87888000       0.12136800
   133  C          0.74293000       0.65252000       0.66525800
   134  C          0.75707000       0.15252000       0.83474200
   135  C          0.25707000       0.34748000       0.33474200
   136  C          0.24293000       0.84748000       0.16525800
   137  C          0.92403000       0.70802000       0.66656700
   138  C          0.57597000       0.20802000       0.83343300
   139  C          0.07597000       0.29198000       0.33343300
   140  C          0.42403000       0.79198000       0.16656700
   141  H          0.24630000       0.77820000       0.59908000
   142  H          0.25370000       0.27820000       0.90092000
   143  H          0.75370000       0.22180000       0.40092000
   144  H          0.74630000       0.72180000       0.09908000
   145  H          0.26530000       0.78320000       0.65058000
   146  H          0.23470000       0.28320000       0.84942000
   147  H          0.73470000       0.21680000       0.34942000
   148  H          0.76530000       0.71680000       0.15058000
   149  H          0.95930000       0.71620000       0.54997000
   150  H          0.54070000       0.21620000       0.95003000
   151  H          0.04070000       0.28380000       0.45003000
   152  H          0.45930000       0.78380000       0.04997000
   153  H          0.64630000       0.62520000       0.54808000
   154  H          0.85370000       0.12520000       0.95192000
   155  H          0.35370000       0.37480000       0.45192000
   156  H          0.14630000       0.87480000       0.04808000
   157  H          0.51430000       0.58420000       0.62037000
   158  H         -0.01430000       0.08420000       0.87963000
   159  H          0.48570000       0.41580000       0.37963000
   160  H          0.01430000       0.91580000       0.12037000
   161  H          0.68930000       0.63320000       0.69658000
   162  H          0.81070000       0.13320000       0.80342000
   163  H          0.31070000       0.36680000       0.30342000
   164  H          0.18930000       0.86680000       0.19658000
   165  H          0.00130000       0.72720000       0.69668000
   166  H          0.49870000       0.22720000       0.80332000
   167  H         -0.00130000       0.27280000       0.30332000
   168  H          0.50130000       0.77280000       0.19668000
