data_RAPRUZ
_symmetry_space_group_name_H-M    'P1'
_symmetry_Int_Tables_number       1
loop_
_symmetry_equiv_pos_site_id
_symmetry_equiv_pos_as_xyz
1 x,y,z
_cell_length_a                   7.9512
_cell_length_b                   9.8093
_cell_length_c                   12.3753
_cell_angle_alpha                100.2436
_cell_angle_beta                 100.0656
_cell_angle_gamma                99.3907
loop_
_atom_site_label
_atom_site_type_symbol
_atom_site_fract_x
_atom_site_fract_y
_atom_site_fract_z
     1  I          0.38925500       0.90874500       0.61367300
     2  I          0.61074500       0.09125500       0.38632700
     3  I          0.89186500       0.95677500       0.15013300
     4  I          0.10813500       0.04322500       0.84986700
     5  F          0.53016000       0.68035000       0.74144000
     6  F          0.46984000       0.31965000       0.25856000
     7  F          0.71586000       0.69905000       0.94574000
     8  F          0.28414000       0.30095000       0.05426000
     9  F          0.74696000       0.19084000       0.02553000
    10  F          0.25304000       0.80916000       0.97447000
    11  F          0.55776000       0.17364000       0.82173000
    12  F          0.44224000       0.82636000       0.17827000
    13  C          0.53648000       0.92507000       0.77475000
    14  C          0.46352000       0.07493000       0.22525000
    15  C          0.58309000       0.80817000       0.81135000
    16  C          0.41691000       0.19183000       0.18865000
    17  C          0.67649000       0.81657000       0.91625000
    18  C          0.32351000       0.18343000       0.08375000
    19  C          0.73678000       0.94587000      -0.00815000
    20  C          0.26322000       0.05413000       0.00815000
    21  C          0.69238000       0.06337000       0.95775000
    22  C          0.30762000       0.93663000       0.04225000
    23  C          0.59558000       0.05197000       0.84955000
    24  C          0.40442000       0.94803000       0.15045000
    25  S          0.14492000       0.90340170       0.37412120
    26  S          0.85508000       0.09659830       0.62587880
    27  N          0.95353000       0.63046000       0.35284000
    28  N          0.04647000       0.36954000       0.64716000
    29  N          0.86403000       0.79996000       0.45245000
    30  N          0.13597000       0.20004000       0.54755000
    31  H          0.85595500       0.88437000       0.48693200
    32  H          0.14404500       0.11563000       0.51306800
    33  C         -0.01258000       0.77377000       0.39245000
    34  C          0.01258000       0.22623000       0.60755000
    35  C          0.75359000       0.67578000       0.45177000
    36  C          0.24641000       0.32422000       0.54823000
    37  H          0.65727500       0.66569300       0.48762700
    38  H          0.34272500       0.33430700       0.51237300
    39  C          0.80919000       0.57188000       0.39027000
    40  C          0.19081000       0.42812000       0.60973000
    41  H          0.75811100       0.47396400       0.37468500
    42  H          0.24188900       0.52603600       0.62531500
    43  C          0.05381000       0.54997000       0.27916000
    44  C          0.94619000       0.45003000       0.72084000
    45  C         -0.01891200       0.39048000       0.26717000
    46  C          0.01891200       0.60952000       0.73283000
    47  H         -0.00079800       0.36661600       0.34132300
    48  H          0.00079800       0.63338400       0.65867700
    49  H          0.85605400       0.36885800       0.23360100
    50  H          0.14394600       0.63114200       0.76639900
    51  H          0.04182000       0.33484500       0.21868500
    52  H          0.95818000       0.66515500       0.78131500
    53  C          0.24791000       0.58228000       0.33567000
    54  C          0.75209000       0.41772000       0.66433000
    55  H          0.26150100       0.55620200       0.40905300
    56  H          0.73849900       0.44379800       0.59094700
    57  H          0.31108500       0.52762900       0.28826900
    58  H          0.68891500       0.47237100       0.71173100
    59  H          0.29521700       0.68339200       0.34547800
    60  H          0.70478300       0.31660800       0.65452200
    61  C          0.02701300       0.58831000       0.16596000
    62  C          0.97298700       0.41169000       0.83404000
    63  H          0.09192500       0.53625000       0.11821700
    64  H          0.90807500       0.46375000       0.88178300
    65  H          0.90260100       0.56365200       0.13076200
    66  H          0.09739900       0.43634800       0.86923800
    67  H          0.06910900       0.69016800       0.17484500
    68  H          0.93089100       0.30983200       0.82515500
