data_RAPSAG
_symmetry_space_group_name_H-M    'P1'
_symmetry_Int_Tables_number       1
loop_
_symmetry_equiv_pos_site_id
_symmetry_equiv_pos_as_xyz
1 x,y,z
_cell_length_a                   7.5332
_cell_length_b                   9.6523
_cell_length_c                   9.8394
_cell_angle_alpha                113.6997
_cell_angle_beta                 97.3267
_cell_angle_gamma                92.4926
loop_
_atom_site_label
_atom_site_type_symbol
_atom_site_fract_x
_atom_site_fract_y
_atom_site_fract_z
     1  I          0.68415400       0.65736300       0.40342300
     2  I          0.31584600       0.34263700       0.59657700
     3  I          0.69357400       0.28483300       0.39445300
     4  I          0.30642600       0.71516700       0.60554700
     5  C          0.56936000       0.48945000       0.46315000
     6  C          0.43064000       0.51055000       0.53685000
     7  S          0.78262140       0.93604120       0.30948130
     8  S          0.21737860       0.06395880       0.69051870
     9  N         -0.01355000       0.78365000       0.08664000
    10  N          0.01355000       0.21635000       0.91336000
    11  N          0.13425000       0.89605000       0.31165000
    12  N          0.86575000       0.10395000       0.68835000
    13  H          0.15953700       0.94767100       0.40973500
    14  H          0.84046300       0.05232900       0.59026500
    15  C          0.96976000       0.86924000       0.23155000
    16  C          0.03024000       0.13076000       0.76845000
    17  C          0.16757000       0.76246000       0.08046000
    18  C          0.83243000       0.23754000       0.91954000
    19  H          0.21749100       0.70805700      -0.00764900
    20  H          0.78250900       0.29194300       0.00764900
    21  C          0.25847000       0.83196000       0.21997000
    22  C          0.74153000       0.16804000       0.78003000
    23  H          0.38422400       0.83612900       0.24989100
    24  H          0.61577600       0.16387100       0.75010900
    25  C          0.83817000       0.72517000       0.95204000
    26  C          0.16183000       0.27483000       0.04796000
    27  C          0.91381100       0.61041200       0.81662000
    28  C          0.08618900       0.38958800       0.18338000
    29  H          0.01446500       0.66190300       0.79513500
    30  H         -0.01446500       0.33809700       0.20486500
    31  H          0.95595800       0.52693500       0.84064200
    32  H          0.04404200       0.47306500       0.15935800
    33  H          0.81904800       0.56957300       0.72854900
    34  H          0.18095200       0.43042700       0.27145100
    35  C          0.68488000       0.63967000       0.97954000
    36  C          0.31512000       0.36033000       0.02046000
    37  H          0.72794800       0.55273000      -0.00330600
    38  H          0.27205200       0.44727000       0.00330600
    39  H          0.63690300       0.70737100       0.06818900
    40  H          0.36309700       0.29262900       0.93181100
    41  H          0.58957900       0.60302200       0.89173100
    42  H          0.41042100       0.39697800       0.10826900
    43  C          0.77661200       0.86001000       0.92519000
    44  C          0.22338800       0.13999000       0.07481000
    45  H          0.87858400       0.91373200       0.90757200
    46  H          0.12141600       0.08626800       0.09242800
    47  H          0.68195700       0.82478700       0.83699200
    48  H          0.31804300       0.17521300       0.16300800
    49  H          0.72928100       0.92913600       0.01345000
    50  H          0.27071900       0.07086400      -0.01345000
