data_RARTIQ
_symmetry_space_group_name_H-M    'P1'
_symmetry_Int_Tables_number       1
loop_
_symmetry_equiv_pos_site_id
_symmetry_equiv_pos_as_xyz
1 x,y,z
_cell_length_a                   7.48015
_cell_length_b                   11.14857
_cell_length_c                   14.66569
_cell_angle_alpha                103.9212
_cell_angle_beta                 97.9232
_cell_angle_gamma                94.1022
loop_
_atom_site_label
_atom_site_type_symbol
_atom_site_fract_x
_atom_site_fract_y
_atom_site_fract_z
     1  S          0.18988400       0.46658300       0.35636200
     2  S          0.81011600       0.53341700       0.64363800
     3  S          0.33488400       0.62718300       0.55226200
     4  S          0.66511600       0.37281700       0.44773800
     5  F          0.51381100       0.58806700       0.30822600
     6  F          0.48618900       0.41193300       0.69177400
     7  F          0.61780100       0.69576900       0.44957600
     8  F          0.38219900       0.30423100       0.55042400
     9  F          0.56847120       0.78499800       0.33605800
    10  F          0.43152880       0.21500200       0.66394200
    11  N          0.36764130       0.87617900       0.55028700
    12  N          0.63235870       0.12382100       0.44971300
    13  N          0.11854140       0.61092900       0.22760700
    14  N          0.88145860       0.38907100       0.77239300
    15  C          0.20835160       0.62389110       0.43489800
    16  C          0.79164840       0.37610890       0.56510200
    17  C          0.38643150       0.79239110       0.59734800
    18  C          0.61356850       0.20760890       0.40265200
    19  C          0.45601150       0.83291110       0.70107800
    20  C          0.54398850       0.16708890       0.29892200
    21  C          0.18693160       0.71782110       0.29770800
    22  C          0.81306840       0.28217890       0.70229200
    23  C          0.30761160       0.84545110       0.45348800
    24  C          0.69238840       0.15454890       0.54651200
    25  C          0.30639160       0.71513110       0.39028800
    26  C          0.69360840       0.28486890       0.60971200
    27  C          0.11697160       0.50270110       0.24531800
    28  C          0.88302840       0.49729890       0.75468200
    29  C          0.22119160       0.91387110       0.40004800
    30  C          0.77880840       0.08612890       0.59995200
    31  C          0.01556160       0.65620120       0.44786900
    32  C         -0.01556160       0.34379880       0.55213100
    33  H          0.02220000       0.73970000       0.49020000
    34  H         -0.02220000       0.26030000       0.50980000
    35  H          0.95650000       0.59560000       0.47580000
    36  H          0.04350000       0.40440000       0.52420000
    37  H          0.94510000       0.65390000       0.38590000
    38  H          0.05490000       0.34610000       0.61410000
    39  C          0.14634160       0.83594110       0.30543800
    40  C          0.85365840       0.16405890       0.69456200
    41  C          0.49727170       0.74853120       0.75553900
    42  C          0.50272830       0.25146880       0.24446100
    43  H          0.47880000       0.66180000       0.72630000
    44  H          0.52120000       0.33820000       0.27370000
    45  C          0.05607160       0.38957110       0.16680900
    46  C          0.94392840       0.61042890       0.83319100
    47  C          0.92607820       0.17530120       0.10744100
    48  C          0.07392180       0.82469880       0.89255900
    49  H          0.87090000       0.10160000       0.11830000
    50  H          0.12910000       0.89840000       0.88170000
    51  C          0.08465170       0.39193120       0.07479900
    52  C          0.91534830       0.60806880       0.92520100
    53  H          0.13760000       0.46590000       0.06340000
    54  H          0.86240000       0.53410000       0.93660000
    55  C          0.97497830       0.28097120       0.18248900
    56  C          0.02502170       0.71902880       0.81751100
    57  H          0.95320000       0.27930000       0.24450000
    58  H          0.04680000       0.72070000       0.75550000
    59  C          0.56506180       0.79048130       0.85204900
    60  C          0.43493820       0.20951870       0.14795100
    61  H          0.59420000       0.73240000       0.88830000
    62  H          0.40580000       0.26760000       0.11170000
    63  C          0.48312180       0.96054120       0.74562900
    64  C          0.51687820       0.03945880       0.25437100
    65  H          0.45660000       0.01910000       0.70940000
    66  H          0.54340000       0.98090000       0.29060000
    67  C          0.54859180       0.00172120       0.84243900
    68  C          0.45140820      -0.00172120       0.15756100
    69  H          0.56500000       0.08820000       0.87240000
    70  H          0.43500000       0.91180000       0.12760000
    71  C          0.50097170       0.69433110       0.37152900
    72  C          0.49902830       0.30566890       0.62847100
    73  C          0.15492170       0.03943110       0.41308900
    74  C          0.84507830       0.96056890       0.58691100
    75  H          0.24730000       0.10130000       0.40330000
    76  H          0.75270000       0.89870000       0.59670000
    77  H          0.12170000       0.06890000       0.47720000
    78  H          0.87830000       0.93110000       0.52280000
    79  C          0.59034170       0.91673130       0.89577900
    80  C          0.40965830       0.08326870       0.10422100
    81  H          0.63600000       0.94510000       0.96190000
    82  H          0.36400000       0.05490000       0.03810000
    83  C          0.95794820       0.17750120       0.01665900
    84  C          0.04205180       0.82249880       0.98334100
    85  H          0.92680000       0.10480000       0.96570000
    86  H          0.07320000       0.89520000       0.03430000
    87  C          0.03545180       0.28605120       0.00027900
    88  C          0.96454820       0.71394880      -0.00027900
    89  H          0.05480000       0.28770000       0.93790000
    90  H          0.94520000       0.71230000       0.06210000
    91  C          0.02523170       0.90721120       0.25262900
    92  C          0.97476830       0.09278880       0.74737100
    93  H          0.91220000       0.85500000       0.21810000
    94  H          0.08780000       0.14500000       0.78190000
    95  H          0.08800000       0.93970000       0.20690000
    96  H          0.91200000       0.06030000       0.79310000
    97  C         -0.01446180       0.01433120       0.33430900
    98  C          0.01446180      -0.01433120       0.66569100
    99  H          0.87570000      -0.01040000       0.35900000
   100  H          0.12430000       0.01040000       0.64100000
   101  H          0.96620000       0.08970000       0.31140000
   102  H          0.03380000       0.91030000       0.68860000
   103  C          0.51362000       0.60440160       0.07515120
   104  C          0.48638000       0.39559840       0.92484880
   105  H          0.52250000       0.67600000       0.12680000
   106  H          0.47750000       0.32400000       0.87320000
   107  C          0.40312000       0.59816160       0.98996870
   108  C          0.59688000       0.40183840       0.01003130
   109  H          0.33680000       0.66590000       0.98310000
   110  H          0.66320000       0.33410000       0.01690000
   111  C          0.61122000       0.50605170       0.08504120
   112  C          0.38878000       0.49394830       0.91495880
   113  H          0.68780000       0.51030000       0.14330000
   114  H          0.31220000       0.48970000       0.85670000
