data_RASHOL
_symmetry_space_group_name_H-M    'P1'
_symmetry_Int_Tables_number       1
loop_
_symmetry_equiv_pos_site_id
_symmetry_equiv_pos_as_xyz
1 x,y,z
_cell_length_a                   6.21006
_cell_length_b                   7.89437
_cell_length_c                   12.754213
_cell_angle_alpha                87.2553
_cell_angle_beta                 79.5744
_cell_angle_gamma                85.5853
loop_
_atom_site_label
_atom_site_type_symbol
_atom_site_fract_x
_atom_site_fract_y
_atom_site_fract_z
     1  C          0.57614000       0.08393000       0.19292180
     2  C          0.42386000       0.91607000       0.80707820
     3  C          0.50783000       0.19042000       0.11053170
     4  C          0.49217000       0.80958000       0.88946830
     5  C          0.85533000       0.37642000       0.89495830
     6  C          0.14467000       0.62358000       0.10504170
     7  C          0.62673000       0.25422000       0.00798180
     8  C          0.37327000       0.74578000      -0.00798180
     9  N          0.41693000       0.06192000       0.27201160
    10  N          0.58307000       0.93808000       0.72798840
    11  N          0.30083000       0.23402000       0.14194170
    12  N          0.69917000       0.76598000       0.85805830
    13  N          0.79043000      -0.00282000       0.19570170
    14  N          0.20957000       0.00282000       0.80429830
    15  N          0.56113000       0.23132000       0.91731850
    16  N          0.43887000       0.76868000       0.08268150
    17  N          0.71283000       0.31152000       0.84474850
    18  N          0.28717000       0.68848000       0.15525150
    19  H          0.69640000       0.32030000       0.77588400
    20  H          0.30360000       0.67970000       0.22411600
    21  N          0.80733000       0.34512000      -0.00096140
    22  N          0.19267000       0.65488000       0.00096140
    23  N          0.03863000       0.46242000       0.85248850
    24  N          0.96137000       0.53758000       0.14751150
    25  H          0.09640000       0.52530000       0.89508300
    26  H          0.90360000       0.47470000       0.10491700
    27  N          0.07143000       0.53042000       0.75124850
    28  N          0.92857000       0.46958000       0.24875150
    29  O          0.24173000       0.15442000       0.24137140
    30  O          0.75827000       0.84558000       0.75862860
    31  O          0.82493000       0.93668000       0.28162150
    32  O          0.17507000       0.06332000       0.71837850
    33  O          0.91673000      -0.00912000       0.11092140
    34  O          0.08327000       0.00912000       0.88907860
    35  O          0.20843000       0.63689190       0.73205870
    36  O          0.79157000       0.36310810       0.26794130
    37  O          0.96753000       0.47962190       0.68765880
    38  O          0.03247000       0.52037810       0.31234120
    39  C          0.42094000       0.28463000       0.50133190
    40  C          0.57906000       0.71537000       0.49866810
    41  H          0.28760000       0.34910000       0.53540000
    42  H          0.71240000       0.65090000       0.46460000
    43  H          0.38580000       0.16930000       0.48850000
    44  H          0.61420000       0.83070000       0.51150000
    45  H          0.48000000       0.34120000       0.43330000
    46  H          0.52000000       0.65880000       0.56670000
    47  C          0.58754000       0.27573000       0.57261190
    48  C          0.41246000       0.72427000       0.42738810
    49  C          0.81264000       0.20323000       0.52872000
    50  C          0.18736000       0.79677000       0.47128000
    51  H          0.88880000       0.28600000       0.47840000
    52  H          0.11120000       0.71400000       0.52160000
    53  H          0.80280000       0.09890000       0.49170000
    54  H          0.19720000       0.90110000       0.50830000
    55  H          0.89420000       0.17710000       0.58710000
    56  H          0.10580000       0.82290000       0.41290000
    57  O          0.54023000       0.32926190       0.66255130
    58  O          0.45977000       0.67073810       0.33744870
