data_RAXZAV
_symmetry_space_group_name_H-M    'P1'
_symmetry_Int_Tables_number       1
loop_
_symmetry_equiv_pos_site_id
_symmetry_equiv_pos_as_xyz
1 x,y,z
_cell_length_a                   9.39733
_cell_length_b                   9.99332
_cell_length_c                   13.09813
_cell_angle_alpha                72.1592
_cell_angle_beta                 76.3852
_cell_angle_gamma                74.9412
loop_
_atom_site_label
_atom_site_type_symbol
_atom_site_fract_x
_atom_site_fract_y
_atom_site_fract_z
     1  O          0.34548100       0.81295110       0.60395700
     2  O          0.65451900       0.18704890       0.39604300
     3  H          0.43005000       0.76394400       0.58629400
     4  H          0.56995000       0.23605600       0.41370600
     5  O          0.55881100       0.73474100       0.19011800
     6  O          0.44118900       0.26525900       0.80988200
     7  H          0.51283800       0.81193900       0.20572800
     8  H          0.48716200       0.18806100       0.79427200
     9  C          0.31160140       0.78623130       0.71462100
    10  C          0.68839860       0.21376870       0.28537900
    11  C          0.16344130       0.82555130       0.76147100
    12  C          0.83655870       0.17444870       0.23852900
    13  H          0.08917900       0.86988600       0.71654400
    14  H          0.91082100       0.13011400       0.28345600
    15  C          0.12345130       0.80022130       0.87395100
    16  C          0.87654870       0.19977870       0.12604900
    17  H          0.02141000       0.82669800       0.90457900
    18  H          0.97859000       0.17330200       0.09542100
    19  C          0.22866130       0.73719120       0.94290100
    20  C          0.77133870       0.26280880       0.05709900
    21  C          0.37732130       0.69941130       0.89397100
    22  C          0.62267870       0.30058870       0.10602900
    23  H          0.45205900       0.65654300       0.93862700
    24  H          0.54794100       0.34345700       0.06137300
    25  C          0.41855130       0.72286140       0.78195100
    26  C          0.58144870       0.27713860       0.21804900
    27  H          0.52033200       0.69547700       0.75114400
    28  H          0.47966800       0.30452300       0.24885600
    29  C          0.18715130       0.72053130       0.06638100
    30  C          0.81284870       0.27946870       0.93361900
    31  C          0.01933130       0.72426130       0.10423900
    32  C          0.98066870       0.27573870       0.89576100
    33  C          0.95573870       0.61488130       0.09887100
    34  C          0.04426130       0.38511870       0.90112900
    35  H          0.01920600       0.53575700       0.07452100
    36  H          0.98079400       0.46424300       0.92547900
    37  C          0.80338860       0.61809130       0.12787100
    38  C          0.19661140       0.38190870       0.87212900
    39  H          0.76401700       0.54168200       0.12394100
    40  H          0.23598300       0.45831800       0.87605900
    41  C          0.70795870       0.73429130       0.16294100
    42  C          0.29204130       0.26570870       0.83705900
    43  C          0.76850860       0.84360130       0.16957100
    44  C          0.23149140       0.15639870       0.83042900
    45  H          0.70499700       0.92287300       0.19367700
    46  H          0.29500300       0.07712700       0.80632300
    47  C          0.92185860       0.83734130       0.14101100
    48  C          0.07814140       0.16265870       0.85898900
    49  H          0.96130100       0.91264800       0.14679000
    50  H          0.03869900       0.08735200       0.85321000
    51  C          0.23375140       0.84356140       0.08915100
    52  C          0.76624860       0.15643860       0.91084900
    53  H          0.18142400       0.93575200       0.04860000
    54  H          0.81857600       0.06424800       0.95140000
    55  H          0.34193900       0.83621000       0.06614700
    56  H          0.65806100       0.16379000       0.93385300
    57  H          0.20761800       0.83722100       0.16722800
    58  H          0.79238200       0.16277900       0.83277200
    59  C          0.27549140       0.57835140       0.12952100
    60  C          0.72450860       0.42164860       0.87047900
    61  H          0.23867100       0.56474400       0.20775200
    62  H          0.76132900       0.43525600       0.79224800
    63  H          0.38191300       0.58175400       0.11402200
    64  H          0.61808700       0.41824600       0.88597800
    65  H          0.26198000       0.49827600       0.10687200
    66  H          0.73802000       0.50172400       0.89312800
    67  N          0.60070120       0.63167120       0.53948900
    68  N          0.39929880       0.36832880       0.46051100
    69  N          0.39172120       0.98132880       0.24831900
    70  N          0.60827880       0.01867120       0.75168100
    71  C          0.61097140       0.49506150       0.59931110
    72  C          0.38902860       0.50493850       0.40068890
    73  H          0.53687300       0.47358800       0.66179700
    74  H          0.46312700       0.52641200       0.33820300
    75  C          0.72365140       0.38423140       0.57470100
    76  C          0.27634860       0.61576860       0.42529900
    77  H          0.72646300       0.28948600       0.62039500
    78  H          0.27353700       0.71051400       0.37960500
    79  C          0.83380130       0.41091140       0.48264100
    80  C          0.16619870       0.58908860       0.51735900
    81  C          0.82265140       0.55231140       0.42013100
    82  C          0.17734860       0.44768860       0.57986900
    83  H          0.89425500       0.57667900       0.35655800
    84  H          0.10574500       0.42332100       0.64344200
    85  C          0.70604140       0.65774150       0.45129100
    86  C          0.29395860       0.34225850       0.54870900
    87  H          0.70073100       0.75372500       0.40757400
    88  H          0.29926900       0.24627500       0.59242600
    89  C          0.95451140       0.28717140       0.45562100
    90  C          0.04548860       0.71282860       0.54437900
    91  H          0.90640200       0.21505900       0.44696600
    92  H          0.09359800       0.78494100       0.55303400
    93  H          0.00899800       0.24097200       0.51772300
    94  H          0.99100200       0.75902800       0.48227700
    95  C          0.06724140       0.32984140       0.35272100
    96  C          0.93275860       0.67015860       0.64727900
    97  H          0.01175400       0.38476800       0.29223400
    98  H          0.98824600       0.61523200       0.70776600
    99  H          0.12224100       0.39459700       0.36432100
   100  H          0.87775900       0.60540300       0.63567900
   101  C          0.17956130       0.20581130       0.31872100
   102  C          0.82043870       0.79418870       0.68127900
   103  C          0.25600140       0.09237140       0.39126110
   104  C          0.74399860       0.90762860       0.60873890
   105  H          0.23740800       0.08913500       0.46639100
   106  H          0.76259200       0.91086500       0.53360900
   107  C          0.35923150       0.98448860       0.35289110
   108  C          0.64076850       0.01551140       0.64710890
   109  H          0.41005900       0.90814400       0.40370700
   110  H          0.58994100       0.09185600       0.59629300
   111  C          0.31951140       0.09113140       0.17859110
   112  C          0.68048860       0.90886860       0.82140890
   113  H          0.34178400       0.09237100       0.10373900
   114  H          0.65821600       0.90762900       0.89626100
   115  C          0.21419130       0.20282130       0.20989100
   116  C          0.78580870       0.79717870       0.79010900
   117  H          0.16530600       0.27770000       0.15713100
   118  H          0.83469400       0.72230000       0.84286900
