data_REBBAE
_symmetry_space_group_name_H-M    'P1'
_symmetry_Int_Tables_number       1
loop_
_symmetry_equiv_pos_site_id
_symmetry_equiv_pos_as_xyz
1 x,y,z
_cell_length_a                   10.9842
_cell_length_b                   17.2083
_cell_length_c                   15.5196
_cell_angle_alpha                90.0
_cell_angle_beta                 112.982
_cell_angle_gamma                90.0
loop_
_atom_site_label
_atom_site_type_symbol
_atom_site_fract_x
_atom_site_fract_y
_atom_site_fract_z
     1  C          0.62222000       0.98770130       0.43537160
     2  C          0.37778000       0.48770130       0.06462840
     3  C          0.37778000       0.01229870       0.56462840
     4  C          0.62222000       0.51229870       0.93537160
     5  H          0.65280000       0.96360000       0.39020000
     6  H          0.34720000       0.46360000       0.10980000
     7  H          0.34720000       0.03640000       0.60980000
     8  H          0.65280000       0.53640000       0.89020000
     9  H          0.64180000       0.04350000       0.43960000
    10  H          0.35820000       0.54350000       0.06040000
    11  H          0.35820000       0.95650000       0.56040000
    12  H          0.64180000       0.45650000       0.93960000
    13  H          0.52660000       0.98000000       0.41480000
    14  H          0.47340000       0.48000000       0.08520000
    15  H          0.47340000       0.02000000       0.58520000
    16  H          0.52660000       0.52000000       0.91480000
    17  C          0.67730180       0.87402110       0.53030130
    18  C          0.32269820       0.37402110       0.96969870
    19  C          0.32269820       0.12597890       0.46969870
    20  C          0.67730180       0.62597890       0.03030130
    21  C          0.59817190       0.82799110       0.45614130
    22  C          0.40182810       0.32799110       0.04385870
    23  C          0.40182810       0.17200890       0.54385870
    24  C          0.59817190       0.67200890       0.95614130
    25  C          0.59741180       0.74833110       0.47023130
    26  C          0.40258820       0.24833110       0.02976870
    27  C          0.40258820       0.25166890       0.52976870
    28  C          0.59741180       0.75166890       0.97023130
    29  C          0.67353170       0.71555100       0.55539120
    30  C          0.32646830       0.21555100       0.94460880
    31  C          0.32646830       0.28444900       0.44460880
    32  C          0.67353170       0.78444900       0.05539120
    33  C          0.75324170       0.76256110       0.62990120
    34  C          0.24675830       0.26256110       0.87009880
    35  C          0.24675830       0.23743890       0.37009880
    36  C          0.75324170       0.73743890       0.12990120
    37  C          0.75312180       0.84195110       0.61722130
    38  C          0.24687820       0.34195110       0.88277870
    39  C          0.24687820       0.15804890       0.38277870
    40  C          0.75312180       0.65804890       0.11722130
    41  C          0.88582000       0.76972130       0.79288130
    42  C          0.11418000       0.26972130       0.70711870
    43  C          0.11418000       0.23027870       0.20711870
    44  C          0.88582000       0.73027870       0.29288130
    45  H          0.95260000       0.80420000       0.78620000
    46  H          0.04740000       0.30420000       0.71380000
    47  H          0.04740000       0.19580000       0.21380000
    48  H          0.95260000       0.69580000       0.28620000
    49  H          0.92790000       0.73510000       0.84650000
    50  H          0.07210000       0.23510000       0.65350000
    51  H          0.07210000       0.26490000       0.15350000
    52  H          0.92790000       0.76490000       0.34650000
    53  H          0.81790000       0.80090000       0.80300000
    54  H          0.18210000       0.30090000       0.69700000
    55  H          0.18210000       0.19910000       0.19700000
    56  H          0.81790000       0.69910000       0.30300000
    57  C          0.75651170       0.58353100       0.54853120
    58  C          0.24348830       0.08353100       0.95146880
    59  C          0.24348830       0.41646900       0.45146880
    60  C          0.75651170       0.91646900       0.04853120
    61  C          0.75807170       0.50605100       0.56660120
    62  C          0.24192830       0.00605100       0.93339880
    63  C          0.24192830       0.49394900       0.43339880
    64  C          0.75807170      -0.00605100       0.06660120
    65  C          0.67747170       0.46772100       0.61514120
    66  C          0.32252830       0.96772100       0.88485880
    67  C          0.32252830       0.53227900       0.38485880
    68  C          0.67747170       0.03227900       0.11514120
    69  C          0.58317170       0.52639100       0.62761120
    70  C          0.41682830       0.02639100       0.87238880
    71  C          0.41682830       0.47360900       0.37238880
    72  C          0.58317170       0.97360900       0.12761120
    73  C          0.58715170       0.60240100       0.60818120
    74  C          0.41284830       0.10240100       0.89181880
    75  C          0.41284830       0.39759900       0.39181880
    76  C          0.58715170       0.89759900       0.10818120
    77  C          0.50075180       0.66235100       0.62761130
    78  C          0.49924820       0.16235100       0.87238870
    79  C          0.49924820       0.33764900       0.37238870
    80  C          0.50075180       0.83764900       0.12761130
    81  C          0.29562000       0.72624120       0.56416160
    82  C          0.70438000       0.22624120       0.93583840
    83  C          0.70438000       0.27375880       0.43583840
    84  C          0.29562000       0.77375880       0.06416160
    85  H          0.27010000       0.70890000       0.61500000
    86  H          0.72990000       0.20890000       0.88500000
    87  H          0.72990000       0.29110000       0.38500000
    88  H          0.27010000       0.79110000       0.11500000
    89  H          0.21680000       0.72940000       0.50580000
    90  H          0.78320000       0.22940000      -0.00580000
    91  H          0.78320000       0.27060000       0.49420000
    92  H          0.21680000       0.77060000       0.00580000
    93  H          0.33720000       0.77760000       0.57930000
    94  H          0.66280000       0.27760000       0.92070000
    95  H          0.66280000       0.22240000       0.42070000
    96  H          0.33720000       0.72240000       0.07930000
    97  C          0.48727170       0.50042110       0.66584120
    98  C          0.51272830       0.00042110       0.83415880
    99  C          0.51272830       0.49957890       0.33415880
   100  C          0.48727170      -0.00042110       0.16584120
   101  C          0.40748190       0.39303110       0.72272140
   102  C          0.59251810       0.89303110       0.77727860
   103  C          0.59251810       0.60696890       0.27727860
   104  C          0.40748190       0.10696890       0.22272140
   105  H          0.42870000       0.41830000       0.78350000
   106  H          0.57130000       0.91830000       0.71650000
   107  H          0.57130000       0.58170000       0.21650000
   108  H          0.42870000       0.08170000       0.28350000
   109  H          0.42100000       0.33680000       0.73180000
   110  H          0.57900000       0.83680000       0.76820000
   111  H          0.57900000       0.66320000       0.26820000
   112  H          0.42100000       0.16320000       0.23180000
   113  H          0.31500000       0.40340000       0.68220000
   114  H          0.68500000       0.90340000       0.81780000
   115  H          0.68500000       0.59660000       0.31780000
   116  H          0.31500000       0.09660000       0.18220000
   117  C          0.84949180       0.45900100       0.54606120
   118  C          0.15050820       0.95900100       0.95393880
   119  C          0.15050820       0.54099900       0.45393880
   120  C          0.84949180       0.04099900       0.04606120
   121  C          0.76811170       0.43294100       0.70885120
   122  C          0.23188830       0.93294100       0.79114880
   123  C          0.23188830       0.56705900       0.29114880
   124  C          0.76811170       0.06705900       0.20885120
   125  C          0.84085190       0.48137110       0.78284130
   126  C          0.15914810       0.98137110       0.71715870
   127  C          0.15914810       0.51862890       0.21715870
   128  C          0.84085190       0.01862890       0.28284130
   129  C          0.92279190       0.45065110       0.86796130
   130  C          0.07720810       0.95065110       0.63203870
   131  C          0.07720810       0.54934890       0.13203870
   132  C          0.92279190       0.04934890       0.36796130
   133  C          0.93136170       0.37112100       0.87774120
   134  C          0.06863830       0.87112100       0.62225880
   135  C          0.06863830       0.62887900       0.12225880
   136  C          0.93136170       0.12887900       0.37774120
   137  C          0.86204190       0.32092110       0.80560130
   138  C          0.13795810       0.82092110       0.69439870
   139  C          0.13795810       0.67907890       0.19439870
   140  C          0.86204190       0.17907890       0.30560130
   141  C          0.77969180       0.35320110       0.72098130
   142  C          0.22030820       0.85320110       0.77901870
   143  C          0.22030820       0.64679890       0.27901870
   144  C          0.77969180       0.14679890       0.22098130
   145  N          0.67075140       0.63286800       0.56929100
   146  N          0.32924860       0.13286800       0.93070900
   147  N          0.32924860       0.36713200       0.43070900
   148  N          0.67075140       0.86713200       0.06929100
   149  N          0.83088170       0.61791110       0.50764110
   150  N          0.16911830       0.11791110      -0.00764110
   151  N          0.16911830       0.38208890       0.49235890
   152  N          0.83088170       0.88208890       0.00764110
   153  N          0.92592170       0.42155900       0.53115120
   154  N          0.07407830       0.92155900       0.96884880
   155  N          0.07407830       0.57844100       0.46884880
   156  N          0.92592170       0.07844100       0.03115120
   157  N          0.01668150       0.33801900       0.96861110
   158  N         -0.01668150       0.83801900       0.53138890
   159  N         -0.01668150       0.66198100       0.03138890
   160  N          0.01668150       0.16198100       0.46861110
   161  O          0.68844140       0.95269700       0.52510900
   162  O          0.31155860       0.45269700       0.97489100
   163  O          0.31155860       0.04730300       0.47489100
   164  O          0.68844140       0.54730300       0.02510900
   165  O          0.82615130       0.72441700       0.70973800
   166  O          0.17384870       0.22441700       0.79026200
   167  O          0.17384870       0.27558300       0.29026200
   168  O          0.82615130       0.77558300       0.20973800
   169  O          0.49263120       0.42324700       0.67943900
   170  O          0.50736880       0.92324700       0.82056100
   171  O          0.50736880       0.57675300       0.32056100
   172  O          0.49263120       0.07675300       0.17943900
   173  O          0.41174130       0.54177700       0.68494900
   174  O          0.58825870       0.04177700       0.81505100
   175  O          0.58825870       0.45822300       0.31505100
   176  O          0.41174130       0.95822300       0.18494900
   177  O          0.53309130       0.69847700       0.69923900
   178  O          0.46690870       0.19847700       0.80076100
   179  O          0.46690870       0.30152300       0.30076100
   180  O          0.53309130       0.80152300       0.19923900
   181  O          0.38819120       0.67131700       0.55288900
   182  O          0.61180880       0.17131700       0.94711100
   183  O          0.61180880       0.32868300       0.44711100
   184  O          0.38819120       0.82868300       0.05288900
   185  O          0.02622140       0.26701800       0.97552900
   186  O          0.97377860       0.76701800       0.52447100
   187  O          0.97377860       0.73298200       0.02447100
   188  O          0.02622140       0.23298200       0.47552900
   189  O          0.07374140       0.38268800       0.03344900
   190  O          0.92625860       0.88268800       0.46655100
   191  O          0.92625860       0.61731200       0.96655100
   192  O          0.07374140       0.11731200       0.53344900
   193  H          0.54271500       0.71179000       0.42321100
   194  H          0.45728500       0.21179000       0.07678900
   195  H          0.45728500       0.28821000       0.57678900
   196  H          0.54271500       0.78821000       0.92321100
   197  H          0.62631800       0.42361100       0.57731300
   198  H          0.37368200       0.92361100       0.92268700
   199  H          0.37368200       0.57638900       0.42268700
   200  H          0.62631800       0.07638900       0.07731300
   201  H          0.80651600       0.87561000       0.66711200
   202  H          0.19348400       0.37561000       0.83288800
   203  H          0.19348400       0.12439000       0.33288800
   204  H          0.80651600       0.62439000       0.16711200
   205  H          0.97281900       0.48291100       0.91711400
   206  H          0.02718100       0.98291100       0.58288600
   207  H          0.02718100       0.51708900       0.08288600
   208  H          0.97281900       0.01708900       0.41711400
   209  H          0.83391800       0.53381100       0.77481200
   210  H          0.16608200       0.03381100       0.72518800
   211  H          0.16608200       0.46618900       0.22518800
   212  H          0.83391800       0.96618900       0.27481200
   213  H          0.86841800       0.26561200       0.81331300
   214  H          0.13158200       0.76561200       0.68668700
   215  H          0.13158200       0.73438800       0.18668700
   216  H          0.86841800       0.23438800       0.31331300
   217  H          0.83720000       0.66871400       0.50941500
   218  H          0.16280000       0.16871400      -0.00941500
   219  H          0.16280000       0.33128600       0.49058500
   220  H          0.83720000       0.83128600       0.00941500
   221  H          0.89520000       0.59251300       0.50131600
   222  H          0.10480000       0.09251300      -0.00131600
   223  H          0.10480000       0.40748700       0.49868400
   224  H          0.89520000       0.90748700       0.00131600
   225  H          0.72920000       0.31741100       0.66971400
   226  H          0.27080000       0.81741100       0.83028600
   227  H          0.27080000       0.68258900       0.33028600
   228  H          0.72920000       0.18258900       0.16971400
   229  H          0.54520000       0.84861200       0.39421400
   230  H          0.45480000       0.34861200       0.10578600
   231  H          0.45480000       0.15138800       0.60578600
   232  H          0.54520000       0.65138800       0.89421400
   233  O          0.29645150       0.85001900       0.27150100
   234  O          0.70354850       0.35001900       0.22849900
   235  O          0.70354850       0.14998100       0.72849900
   236  O          0.29645150       0.64998100       0.77150100
   237  H          0.35040000       0.87620000       0.23620000
   238  H          0.64960000       0.37620000       0.26380000
   239  H          0.64960000       0.12380000       0.76380000
   240  H          0.35040000       0.62380000       0.73620000
   241  C          0.22752000       0.90836130       0.30010140
   242  C          0.77248000       0.40836130       0.19989860
   243  C          0.77248000       0.09163870       0.69989860
   244  C          0.22752000       0.59163870       0.80010140
   245  H          0.29050000       0.95150000       0.33080000
   246  H          0.70950000       0.45150000       0.16920000
   247  H          0.70950000       0.04850000       0.66920000
   248  H          0.29050000       0.54850000       0.83080000
   249  C          0.18493000       0.87200150       0.37113180
   250  C          0.81507000       0.37200150       0.12886820
   251  C          0.81507000       0.12799850       0.62886820
   252  C          0.18493000       0.62799850       0.87113180
   253  H          0.12280000       0.82960000       0.34200000
   254  H          0.87720000       0.32960000       0.15800000
   255  H          0.87720000       0.17040000       0.65800000
   256  H          0.12280000       0.67040000       0.84200000
   257  H          0.14150000       0.91120000       0.39530000
   258  H          0.85850000       0.41120000       0.10470000
   259  H          0.85850000       0.08880000       0.60470000
   260  H          0.14150000       0.58880000       0.89530000
   261  H          0.26240000       0.85130000       0.42280000
   262  H          0.73760000       0.35130000       0.07720000
   263  H          0.73760000       0.14870000       0.57720000
   264  H          0.26240000       0.64870000       0.92280000
   265  C          0.11512000       0.94061180       0.21828180
   266  C          0.88488000       0.44061180       0.28171820
   267  C          0.88488000       0.05938820       0.78171820
   268  C          0.11512000       0.55938820       0.71828180
   269  H          0.14790000       0.96030000       0.17210000
   270  H          0.85210000       0.46030000       0.32790000
   271  H          0.85210000       0.03970000       0.82790000
   272  H          0.14790000       0.53970000       0.67210000
   273  H          0.07380000       0.98310000       0.23910000
   274  H          0.92620000       0.48310000       0.26090000
   275  H          0.92620000       0.01690000       0.76090000
   276  H          0.07380000       0.51690000       0.73910000
   277  H          0.04980000       0.89960000       0.18990000
   278  H          0.95020000       0.39960000       0.31010000
   279  H          0.95020000       0.10040000       0.81010000
   280  H          0.04980000       0.60040000       0.68990000
