data_REBXON
_symmetry_space_group_name_H-M    'P1'
_symmetry_Int_Tables_number       1
loop_
_symmetry_equiv_pos_site_id
_symmetry_equiv_pos_as_xyz
1 x,y,z
_cell_length_a                   14.3892
_cell_length_b                   6.55659
_cell_length_c                   15.5232
_cell_angle_alpha                90.0
_cell_angle_beta                 94.2894
_cell_angle_gamma                90.0
loop_
_atom_site_label
_atom_site_type_symbol
_atom_site_fract_x
_atom_site_fract_y
_atom_site_fract_z
     1  O          0.52651900       0.38182000       0.60401700
     2  O          0.47348100       0.88182000       0.89598300
     3  O          0.47348100       0.61818000       0.39598300
     4  O          0.52651900       0.11818000       0.10401700
     5  C          0.55786110       0.55243000       0.62256100
     6  C          0.44213890       0.05243000       0.87743900
     7  C          0.44213890       0.44757000       0.37743900
     8  C          0.55786110       0.94757000       0.12256100
     9  N          0.55751100       0.70772000       0.56838800
    10  N          0.44248900       0.20772000       0.93161200
    11  N          0.44248900       0.29228000       0.43161200
    12  N          0.55751100       0.79228000       0.06838800
    13  H          0.53370000       0.69310000       0.51490000
    14  H          0.46630000       0.19310000       0.98510000
    15  H          0.46630000       0.30690000       0.48510000
    16  H          0.53370000       0.80690000       0.01490000
    17  H          0.58110000       0.82580000       0.58580000
    18  H          0.41890000       0.32580000       0.91420000
    19  H          0.41890000       0.17420000       0.41420000
    20  H          0.58110000       0.67420000       0.08580000
    21  C          0.59935900       0.59152000       0.71305900
    22  C          0.40064100       0.09152000       0.78694100
    23  C          0.40064100       0.40848000       0.28694100
    24  C          0.59935900       0.90848000       0.21305900
    25  C          0.60391110       0.43413000       0.77223100
    26  C          0.39608890       0.93413000       0.72776900
    27  C          0.39608890       0.56587000       0.22776900
    28  C          0.60391110       0.06587000       0.27223100
    29  H          0.58140000       0.30300000       0.75490000
    30  H          0.41860000       0.80300000       0.74510000
    31  H          0.41860000       0.69700000       0.24510000
    32  H          0.58140000       0.19700000       0.25490000
    33  N          0.63948900       0.46252000       0.85378800
    34  N          0.36051100       0.96252000       0.64621200
    35  N          0.36051100       0.53748000       0.14621200
    36  N          0.63948900       0.03748000       0.35378800
    37  C          0.66910110       0.64962000       0.87391100
    38  C          0.33089890       0.14962000       0.62608900
    39  C          0.33089890       0.35038000       0.12608900
    40  C          0.66910110       0.85038000       0.37391100
    41  H          0.69330000       0.67710000       0.93130000
    42  H          0.30670000       0.17710000       0.56870000
    43  H          0.30670000       0.32290000       0.06870000
    44  H          0.69330000       0.82290000       0.43130000
    45  C          0.66573120       0.80483000       0.81403100
    46  C          0.33426880       0.30483000       0.68596900
    47  C          0.33426880       0.19517000       0.18596900
    48  C          0.66573120       0.69517000       0.31403100
    49  H          0.68880000       0.93550000       0.83130000
    50  H          0.31120000       0.43550000       0.66870000
    51  H          0.31120000       0.06450000       0.16870000
    52  H          0.68880000       0.56450000       0.33130000
    53  N          0.63128900       0.77812000       0.73286800
    54  N          0.36871100       0.27812000       0.76713200
    55  N          0.36871100       0.22188000       0.26713200
    56  N          0.63128900       0.72188000       0.23286800
    57  O          0.70627100       0.32287170       0.46646700
    58  O          0.29372900       0.82287170       0.03353300
    59  O          0.29372900       0.67712830       0.53353300
    60  O          0.70627100       0.17712830       0.96646700
    61  H          0.67930000       0.23500000       0.43410000
    62  H          0.32070000       0.73500000       0.06590000
    63  H          0.32070000       0.76500000       0.56590000
    64  H          0.67930000       0.26500000       0.93410000
    65  C          0.72756120       0.24292000       0.54300100
    66  C          0.27243880       0.74292000       0.95699900
    67  C          0.27243880       0.75708000       0.45699900
    68  C          0.72756120       0.25708000       0.04300100
    69  O          0.70416100       0.06905170       0.56133800
    70  O          0.29583900       0.56905170       0.93866200
    71  O          0.29583900       0.93094830       0.43866200
    72  O          0.70416100       0.43094830       0.06133800
    73  C          0.78207100       0.37522000       0.60437100
    74  C          0.21792900       0.87522000       0.89562900
    75  C          0.21792900       0.62478000       0.39562900
    76  C          0.78207100       0.12478000       0.10437100
    77  C          0.80063110       0.31112000       0.68890100
    78  C          0.19936890       0.81112000       0.81109900
    79  C          0.19936890       0.68888000       0.31109900
    80  C          0.80063110       0.18888000       0.18890100
    81  O          0.77268100       0.13102160       0.71813700
    82  O          0.22731900       0.63102160       0.78186300
    83  O          0.22731900       0.86897840       0.28186300
    84  O          0.77268100       0.36897840       0.21813700
    85  H          0.74810000       0.06240000       0.67680000
    86  H          0.25190000       0.56240000       0.82320000
    87  H          0.25190000       0.93760000       0.32320000
    88  H          0.74810000       0.43760000       0.17680000
    89  C          0.85023100       0.43892000       0.75096100
    90  C          0.14976900       0.93892000       0.74903900
    91  C          0.14976900       0.56108000       0.24903900
    92  C          0.85023100       0.06108000       0.25096100
    93  C          0.86848110       0.37783000       0.83775110
    94  C          0.13151890       0.87783000       0.66224890
    95  C          0.13151890       0.62217000       0.16224890
    96  C          0.86848110       0.12217000       0.33775110
    97  H          0.84920000       0.24670000       0.85550000
    98  H          0.15080000       0.74670000       0.64450000
    99  H          0.15080000       0.75330000       0.14450000
   100  H          0.84920000       0.25330000       0.35550000
   101  C          0.91374120       0.50583000       0.89661130
   102  C          0.08625880       0.00583000       0.60338870
   103  C          0.08625880       0.49417000       0.10338870
   104  C          0.91374120      -0.00583000       0.39661130
   105  H          0.92600000       0.46320000       0.95490000
   106  H          0.07400000       0.96320000       0.54510000
   107  H          0.07400000       0.53680000       0.04510000
   108  H          0.92600000       0.03680000       0.45490000
   109  C          0.94174130       0.69873000       0.87098140
   110  C          0.05825870       0.19873000       0.62901860
   111  C          0.05825870       0.30127000       0.12901860
   112  C          0.94174130       0.80127000       0.37098140
   113  H          0.97240000       0.78740000       0.91230000
   114  H          0.02760000       0.28740000       0.58770000
   115  H          0.02760000       0.21260000       0.08770000
   116  H          0.97240000       0.71260000       0.41230000
   117  C          0.92573120       0.76163000       0.78771140
   118  C          0.07426880       0.26163000       0.71228860
   119  C          0.07426880       0.23837000       0.21228860
   120  C          0.92573120       0.73837000       0.28771140
   121  H          0.94590000       0.89330000       0.77160000
   122  H          0.05410000       0.39330000       0.72840000
   123  H          0.05410000       0.10670000       0.22840000
   124  H          0.94590000       0.60670000       0.27160000
   125  C          0.87932100       0.63382000       0.72457120
   126  C          0.12067900       0.13382000       0.77542880
   127  C          0.12067900       0.36618000       0.27542880
   128  C          0.87932100       0.86618000       0.22457120
   129  C          0.86140120       0.69383000       0.63725120
   130  C          0.13859880       0.19383000       0.86274880
   131  C          0.13859880       0.30617000       0.36274880
   132  C          0.86140120       0.80617000       0.13725120
   133  H          0.88270000       0.82260000       0.61890000
   134  H          0.11730000       0.32260000       0.88110000
   135  H          0.11730000       0.17740000       0.38110000
   136  H          0.88270000       0.67740000       0.11890000
   137  C          0.81420120       0.56952000       0.57959110
   138  C          0.18579880       0.06952000       0.92040890
   139  C          0.18579880       0.43048000       0.42040890
   140  C          0.81420120       0.93048000       0.07959110
   141  H          0.80240000       0.61340000       0.52150000
   142  H          0.19760000       0.11340000       0.97850000
   143  H          0.19760000       0.38660000       0.47850000
   144  H          0.80240000       0.88660000       0.02150000
