data_REDDOT
_symmetry_space_group_name_H-M    'P1'
_symmetry_Int_Tables_number       1
loop_
_symmetry_equiv_pos_site_id
_symmetry_equiv_pos_as_xyz
1 x,y,z
_cell_length_a                   16.5661
_cell_length_b                   6.8231
_cell_length_c                   9.1361
_cell_angle_alpha                90.0
_cell_angle_beta                 121.261
_cell_angle_gamma                90.0
loop_
_atom_site_label
_atom_site_type_symbol
_atom_site_fract_x
_atom_site_fract_y
_atom_site_fract_z
     1  Br         0.23182000       0.50000000       0.68512000
     2  Br         0.76818000       0.50000000       0.31488000
     3  Br         0.73182000       0.00000000       0.68512000
     4  Br         0.26818000       0.00000000       0.31488000
     5  Br         0.09156000       0.50000000       0.25385000
     6  Br         0.90844000       0.50000000       0.74615000
     7  Br         0.59156000       0.00000000       0.25385000
     8  Br         0.40844000       0.00000000       0.74615000
     9  O          0.11046000       0.50000000       0.84024000
    10  O          0.88954000       0.50000000       0.15976000
    11  O          0.61046000       0.00000000       0.84024000
    12  O          0.38954000       0.00000000       0.15976000
    13  C          0.06073000       0.50000000       0.68370000
    14  C          0.93927000       0.50000000       0.31630000
    15  C          0.56073000       0.00000000       0.68370000
    16  C          0.43927000       0.00000000       0.31630000
    17  C          0.09932000       0.50000000       0.57218000
    18  C          0.90068000       0.50000000       0.42782000
    19  C          0.59932000       0.00000000       0.57218000
    20  C          0.40068000       0.00000000       0.42782000
    21  C          0.04334000       0.50000000       0.40093000
    22  C          0.95666000       0.50000000       0.59907000
    23  C          0.54334000       0.00000000       0.40093000
    24  C          0.45666000       0.00000000       0.59907000
    25  C          0.07851000       0.00000000       0.48693000
    26  C          0.92149000       0.00000000       0.51307000
    27  C          0.57851000       0.50000000       0.48693000
    28  C          0.42149000       0.50000000       0.51307000
    29  C          0.09021000       0.00000000       0.65017000
    30  C          0.90979000      -0.00000000       0.34983000
    31  C          0.59021000       0.50000000       0.65017000
    32  C          0.40979000       0.50000000       0.34983000
    33  C         -0.00995000       0.00000000       0.33786000
    34  C          0.00995000       0.00000000       0.66214000
    35  C          0.49005000       0.50000000       0.33786000
    36  C          0.50995000       0.50000000       0.66214000
    37  C          0.18778000       0.00000000       0.80802000
    38  C          0.81222000      -0.00000000       0.19198000
    39  C          0.68778000       0.50000000       0.80802000
    40  C          0.31222000       0.50000000       0.19198000
    41  C          0.98160000       0.00000000       0.16460000
    42  C          0.01840000       0.00000000       0.83540000
    43  C          0.48160000       0.50000000       0.16460000
    44  C          0.51840000       0.50000000       0.83540000
    45  H          0.13002000       0.00000000       0.48121000
    46  H          0.86998000       0.00000000       0.51879000
    47  H          0.63002000       0.50000000       0.48121000
    48  H          0.36998000       0.50000000       0.51879000
    49  H          0.19640000       0.11714000       0.87159000
    50  H          0.80360000       0.11714000       0.12841000
    51  H          0.69640000       0.61714000       0.87159000
    52  H          0.30360000       0.61714000       0.12841000
    53  H          0.80360000       0.88286000       0.12841000
    54  H          0.19640000       0.88286000       0.87159000
    55  H          0.30360000       0.38286000       0.12841000
    56  H          0.69640000       0.38286000       0.87159000
    57  H          0.21197000       0.00000000       0.75806000
    58  H          0.78803000      -0.00000000       0.24194000
    59  H          0.71197000       0.50000000       0.75806000
    60  H          0.28803000       0.50000000       0.24194000
    61  H          0.04227000       0.00000000       0.19409000
    62  H          0.95773000       0.00000000       0.80591000
    63  H          0.54227000       0.50000000       0.19409000
    64  H          0.45773000       0.50000000       0.80591000
