data_REDFOV
_symmetry_space_group_name_H-M    'P1'
_symmetry_Int_Tables_number       1
loop_
_symmetry_equiv_pos_site_id
_symmetry_equiv_pos_as_xyz
1 x,y,z
_cell_length_a                   7.3261
_cell_length_b                   8.6511
_cell_length_c                   9.741
_cell_angle_alpha                64.8274
_cell_angle_beta                 76.2202
_cell_angle_gamma                69.7276
loop_
_atom_site_label
_atom_site_type_symbol
_atom_site_fract_x
_atom_site_fract_y
_atom_site_fract_z
     1  Br         0.22465700       0.10760600       0.73806500
     2  Br         0.77534300       0.89239400       0.26193500
     3  Br         0.31348700       0.21048600       0.35825500
     4  Br         0.68651300       0.78951400       0.64174500
     5  O          0.92962440       0.41559470       0.80175370
     6  O          0.07037560       0.58440530       0.19824630
     7  C          0.13834660       0.36813560       0.44587470
     8  C          0.86165340       0.63186440       0.55412530
     9  C          0.10174660       0.32793560       0.59664470
    10  C          0.89825340       0.67206440       0.40335530
    11  C          0.96150340       0.45342560       0.66477430
    12  C          0.03849660       0.54657440       0.33522570
    13  C          0.29632230       0.50632660       0.89170520
    14  C          0.70367770       0.49367340       0.10829480
    15  H          0.27696230       0.47058660       0.00065520
    16  H          0.72303770       0.52941340      -0.00065520
    17  C          0.18438240       0.66482660       0.80359510
    18  C          0.81561760       0.33517340       0.19640490
    19  H          0.08654240       0.74067660       0.85007510
    20  H          0.91345760       0.25932340       0.14992490
    21  C          0.21222300       0.71813610       0.64374510
    22  C          0.78777700       0.28186390       0.35625490
    23  H          0.13235300       0.83048610       0.58256510
    24  H          0.86764700       0.16951390       0.41743490
    25  C          0.35201350       0.61300550       0.57167440
    26  C          0.64798650       0.38699450       0.42832560
    27  C          0.38201350       0.66817550       0.40378450
    28  C          0.61798650       0.33182450       0.59621550
    29  C          0.27180300       0.82791590       0.30979500
    30  C          0.72819700       0.17208410       0.69020500
    31  H          0.17272300       0.90520590       0.35423500
    32  H          0.82727700       0.09479410       0.64576500
    33  C          0.30256250       0.88035630       0.14945510
    34  C          0.69743750       0.11964370       0.85054490
    35  H          0.22574250      -0.00720370       0.08574510
    36  H          0.77425750       0.00720370       0.91425490
    37  C          0.44103240       0.77132670       0.08495530
    38  C          0.55896760       0.22867330       0.91504470
    39  H          0.45898240       0.80673670       0.97603470
    40  H          0.54101760       0.19326330       0.02396530
    41  C          0.44192310       0.39346630       0.82483480
    42  C          0.55807690       0.60653370       0.17516520
    43  C          0.47104360       0.44694550       0.66248420
    44  C          0.52895640       0.55305450       0.33751580
