data_REFTOL
_symmetry_space_group_name_H-M    'P1'
_symmetry_Int_Tables_number       1
loop_
_symmetry_equiv_pos_site_id
_symmetry_equiv_pos_as_xyz
1 x,y,z
_cell_length_a                   10.64901
_cell_length_b                   10.97701
_cell_length_c                   19.1092
_cell_angle_alpha                104.302
_cell_angle_beta                 100.872
_cell_angle_gamma                93.212
loop_
_atom_site_label
_atom_site_type_symbol
_atom_site_fract_x
_atom_site_fract_y
_atom_site_fract_z
     1  C          0.28042000       0.69218000       0.17794130
     2  C          0.71958000       0.30782000       0.82205870
     3  C          0.32422000       0.83578000       0.18673130
     4  C          0.67578000       0.16422000       0.81326870
     5  O          0.14722000       0.67220860       0.13560100
     6  O          0.85278000       0.32779140       0.86439900
     7  N          0.10942000       0.78528000       0.11982110
     8  N          0.89058000       0.21472000       0.88017890
     9  C          0.20032000       0.87388000       0.14610120
    10  C          0.79968000       0.12612000       0.85389880
    11  C          0.18282000       0.00052000       0.13406130
    12  C          0.81718000      -0.00052000       0.86593870
    13  C          0.17192000       0.02082000       0.06468130
    14  C          0.82808000       0.97918000       0.93531870
    15  O          0.18662000       0.91862860       0.01002900
    16  O          0.81338000       0.08137140       0.98997100
    17  C          0.17143000       0.93098000       0.93677870
    18  C          0.82857000       0.06902000       0.06322130
    19  H          0.18463000       0.85098000       0.90389870
    20  H          0.81537000       0.14902000       0.09610130
    21  H          0.23473000      -0.00182000       0.93535870
    22  H          0.76527000       0.00182000       0.06464130
    23  H          0.08443000       0.95228000       0.92049870
    24  H          0.91557000       0.04772000       0.07950130
    25  C          0.14832000       0.13882000       0.05255140
    26  C          0.85168000       0.86118000       0.94744860
    27  H          0.13812200       0.14872000       0.00701400
    28  H          0.86187800       0.85128000      -0.00701400
    29  C          0.13432000       0.23552000       0.11212140
    30  C          0.86568000       0.76448000       0.88787860
    31  O          0.10772000       0.35332140       0.10616100
    32  O          0.89228000       0.64667860       0.89383900
    33  C          0.09435000       0.37693000       0.03582000
    34  C          0.90565000       0.62307000       0.96418000
    35  H          0.07555000       0.46433000       0.03932000
    36  H          0.92445000       0.53567000       0.96068000
    37  H          0.02375000       0.31893000       0.00112000
    38  H          0.97625000       0.68107000      -0.00112000
    39  H          0.17445000       0.36393000       0.01822000
    40  H          0.82555000       0.63607000       0.98178000
    41  C          0.14482000       0.21872000       0.18209140
    42  C          0.85518000       0.78128000       0.81790860
    43  H          0.13262700       0.28732600       0.22211600
    44  H          0.86737300       0.71267400       0.77788400
    45  C          0.16702000       0.10082000       0.19275130
    46  C          0.83298000       0.89918000       0.80724870
    47  O          0.17172000       0.06942000       0.25747900
    48  O          0.82828000       0.93058000       0.74252100
    49  C          0.17024000       0.16633000       0.32152000
    50  C          0.82976000       0.83367000       0.67848000
    51  H          0.17404000       0.13003000       0.36372000
    52  H          0.82596000       0.86997000       0.63628000
    53  H          0.09094000       0.20693000       0.31402000
    54  H          0.90906000       0.79307000       0.68598000
    55  H          0.24464000       0.22923000       0.33112000
    56  H          0.75536000       0.77077000       0.66888000
    57  C          0.37292000       0.91348000       0.26661140
    58  C          0.62708000       0.08652000       0.73338860
    59  C          0.48513000      -0.00292000       0.27242000
    60  C          0.51487000       0.00292000       0.72758000
    61  C          0.52783000       0.96258000       0.20432000
    62  C          0.47217000       0.03742000       0.79568000
    63  C          0.44182000       0.85768000       0.15524140
    64  C          0.55818000       0.14232000       0.84475860
    65  C          0.49223000       0.76247000       0.11128140
    66  C          0.50777000       0.23753000       0.88871860
    67  C          0.35803000       0.87088000       0.32639140
    68  C          0.64197000       0.12912000       0.67360860
    69  C          0.57513000       0.03922000       0.33912000
    70  C          0.42487000       0.96078000       0.66088000
    71  C          0.66033000       0.97107000       0.20492000
    72  C          0.33967000       0.02893000       0.79508000
    73  C          0.28862000       0.65408000       0.24970150
    74  C          0.71138000       0.34592000       0.75029850
    75  C          0.31492000       0.73787000       0.31724140
    76  C          0.68508000       0.26213000       0.68275860
    77  C          0.45273000       0.91177000       0.39507150
    78  C          0.54727000       0.08823000       0.60492850
    79  C          0.55853000      -0.00433000       0.40092000
    80  C          0.44147000       0.00433000       0.59908000
    81  C          0.71173000       0.04522000       0.33833000
    82  C          0.28827000       0.95478000       0.66167000
    83  C          0.75213000       0.01213000       0.27363000
    84  C          0.24787000      -0.01213000       0.72637000
    85  C          0.71003000       0.87166000       0.15832000
    86  C          0.28997000       0.12834000       0.84168000
    87  C          0.62853000       0.76836000       0.11282000
    88  C          0.37147000       0.23164000       0.88718000
    89  C          0.44783000       0.62927000       0.10272130
    90  C          0.55217000       0.37073000       0.89727870
    91  C          0.35912000       0.59768000       0.13872130
    92  C          0.64088000       0.40232000       0.86127870
    93  C          0.33192000       0.53098000       0.24152000
    94  C          0.66808000       0.46902000       0.75848000
    95  C          0.38153000       0.70137000       0.38132000
    96  C          0.61847000       0.29863000       0.61868000
    97  C          0.46593000       0.80767000       0.42837150
    98  C          0.53407000       0.19233000       0.57162850
    99  C          0.68374000       0.97617000       0.44072000
   100  C          0.31626000       0.02383000       0.55928000
   101  C          0.77753000       0.00792000       0.40192000
   102  C          0.22247000      -0.00792000       0.59808000
   103  C          0.86083000       0.94037000       0.26913000
   104  C          0.13917000       0.05963000       0.73087000
   105  C          0.83463000       0.85286000       0.19753000
   106  C          0.16537000       0.14714000       0.80247000
   107  C          0.66713000       0.64226000       0.10362000
   108  C          0.33287000       0.35774000       0.89638000
   109  C          0.55853000       0.55707000       0.09754140
   110  C          0.44147000       0.44293000       0.90245860
   111  C          0.37403000       0.49678000       0.17432000
   112  C          0.62597000       0.50322000       0.82568000
   113  C          0.38743000       0.48768000       0.30382000
   114  C          0.61257000       0.51232000       0.69618000
   115  C          0.41323000       0.57637000       0.37612000
   116  C          0.58677000       0.42363000       0.62388000
   117  C          0.58463000       0.79287000       0.47209140
   118  C          0.41537000       0.20713000       0.52790860
   119  C          0.69633000       0.87947000       0.47802000
   120  C          0.30367000       0.12053000       0.52198000
   121  C          0.88903000       0.94298000       0.39982000
   122  C          0.11097000       0.05702000       0.60018000
   123  C          0.93223000       0.90817000       0.33063000
   124  C          0.06777000       0.09183000       0.66937000
   125  C          0.87863000       0.73036000       0.18532000
   126  C          0.12137000       0.26964000       0.81468000
   127  C          0.79323000       0.62146000       0.13682000
   128  C          0.20677000       0.37854000       0.86318000
   129  C          0.56913000       0.44847000       0.12552000
   130  C          0.43087000       0.55153000       0.87448000
   131  C          0.47413000       0.41698000       0.16552000
   132  C          0.52587000       0.58302000       0.83448000
   133  C          0.46823000       0.38938000       0.28942000
   134  C          0.53177000       0.61062000       0.71058000
   135  C          0.51883000       0.56167000       0.43032000
   136  C          0.48117000       0.43833000       0.56968000
   137  C          0.60253000       0.66786000       0.47742000
   138  C          0.39747000       0.33214000       0.52258000
   139  C          0.82003000       0.83507000       0.48782000
   140  C          0.17997000       0.16493000       0.51218000
   141  C          0.91363000       0.86648000       0.44982000
   142  C          0.08637000       0.13352000       0.55018000
   143  C         -0.00207000       0.79867000       0.31592000
   144  C          0.00207000       0.20133000       0.68408000
   145  C          0.97093000       0.71146000       0.24442000
   146  C          0.02907000       0.28854000       0.75558000
   147  C          0.80544000       0.50016000       0.15012000
   148  C          0.19456000       0.49984000       0.84988000
   149  C          0.69644000       0.41577000       0.14502000
   150  C          0.30356000       0.58423000       0.85498000
   151  C          0.50963000       0.35418000       0.22162000
   152  C          0.49037000       0.64582000       0.77838000
   153  C          0.56813000       0.37157000       0.34742000
   154  C          0.43187000       0.62843000       0.65258000
   155  C          0.59263000       0.45527000       0.41582000
   156  C          0.40737000       0.54473000       0.58418000
   157  C          0.72953000       0.62757000       0.49285150
   158  C          0.27047000       0.37243000       0.50714850
   159  C          0.83603000       0.70927000       0.49793140
   160  C          0.16397000       0.29073000       0.50206860
   161  C         -0.00977000       0.76018000       0.43532000
   162  C          0.00977000       0.23982000       0.56468000
   163  C          0.03023000       0.72717000       0.37032000
   164  C          0.96977000       0.27283000       0.62968000
   165  C         -0.01247000       0.58467000       0.25342000
   166  C          0.01247000       0.41533000       0.74658000
   167  C          0.90653000       0.48207000       0.20782000
   168  C          0.09347000       0.51793000       0.79218000
   169  C          0.72743000       0.34447000       0.19912000
   170  C          0.27257000       0.65553000       0.80088000
   171  C          0.63733000       0.31468000       0.23692000
   172  C          0.36267000       0.68532000       0.76308000
   173  C          0.67323000       0.32358000       0.31392000
   174  C          0.32677000       0.67642000       0.68608000
   175  C          0.72413000       0.49577000       0.45532000
   176  C          0.27587000       0.50423000       0.54468000
   177  C          0.94193000       0.66398000       0.46615140
   178  C          0.05807000       0.33602000       0.53384860
   179  C          0.02592000       0.59567000       0.33142000
   180  C          0.97408000       0.40433000       0.66858000
   181  C          0.85973000       0.38457000       0.23782000
   182  C          0.14027000       0.61543000       0.76218000
   183  C          0.80033000       0.36318000       0.35162000
   184  C          0.19967000       0.63682000       0.64838000
   185  C          0.82523000       0.45098000       0.42342000
   186  C          0.17477000       0.54902000       0.57658000
   187  C          0.93742000       0.53668000       0.42870140
   188  C          0.06258000       0.46332000       0.57129860
   189  C          0.98063000       0.50208000       0.36081150
   190  C          0.01937000       0.49792000       0.63918850
   191  C          0.89443000       0.39398000       0.31222000
   192  C          0.10557000       0.60602000       0.68778000
   193  S          0.51809200       0.87739300       0.94470600
   194  S          0.48190800       0.12260700       0.05529400
   195  C          0.50000000       0.00000000       0.00000000
