data_REFYIM
_symmetry_space_group_name_H-M    'P1'
_symmetry_Int_Tables_number       1
loop_
_symmetry_equiv_pos_site_id
_symmetry_equiv_pos_as_xyz
1 x,y,z
_cell_length_a                   11.35534
_cell_length_b                   11.52477
_cell_length_c                   16.08977
_cell_angle_alpha                79.9484
_cell_angle_beta                 84.3403
_cell_angle_gamma                88.9124
loop_
_atom_site_label
_atom_site_type_symbol
_atom_site_fract_x
_atom_site_fract_y
_atom_site_fract_z
     1  P          0.96100400       0.24777400       0.33792300
     2  P          0.03899600       0.75222600       0.66207700
     3  F          0.02557900       0.18932110       0.41896600
     4  F          0.97442100       0.81067890       0.58103400
     5  F          0.83578800       0.22516900       0.39273600
     6  F          0.16421200       0.77483100       0.60726400
     7  F          0.89642900       0.30479120       0.25698700
     8  F          0.10357100       0.69520880       0.74301300
     9  F          0.08645800       0.26892100       0.28316700
    10  F          0.91354200       0.73107900       0.71683300
    11  F          0.95406900       0.12113100       0.31104700
    12  F          0.04593100       0.87886900       0.68895300
    13  F          0.96718900       0.37341100       0.36550800
    14  F          0.03281100       0.62658900       0.63449200
    15  O          0.86097100       0.28780110       0.97255200
    16  O          0.13902900       0.71219890       0.02744800
    17  O          0.75348100       0.15678110       0.06876700
    18  O          0.24651900       0.84321890       0.93123300
    19  O          0.35937900       0.00464110       0.34758700
    20  O          0.64062100      -0.00464110       0.65241300
    21  O          0.14674100       0.84706110       0.34871700
    22  O          0.85325900       0.15293890       0.65128300
    23  O          0.18003100       0.63899120       0.29508800
    24  O          0.81996900       0.36100880       0.70491200
    25  O          0.38493900       0.53940110       0.22242700
    26  O          0.61506100       0.46059890       0.77757300
    27  O          0.85881100       0.67954110       0.98215300
    28  O          0.14118900       0.32045890       0.01784700
    29  O          0.86515900       0.75491110       0.10163700
    30  O          0.13484100       0.24508890       0.89836300
    31  O          0.58224100       0.96543110       0.37016700
    32  O          0.41775900       0.03456890       0.62983300
    33  O          0.71317110       0.75336120       0.44664800
    34  O          0.28682890       0.24663880       0.55335200
    35  O          0.62841100       0.51870110       0.47035700
    36  O          0.37158900       0.48129890       0.52964300
    37  O          0.57019100       0.48534120       0.30142700
    38  O          0.42980900       0.51465880       0.69857300
    39  N          0.85121110       0.97721130       0.00546800
    40  N          0.14878890       0.02278870      -0.00546800
    41  C          0.88386130       0.88471150       0.96781900
    42  C          0.11613870       0.11528850       0.03218100
    43  C          0.93031140       0.89593170       0.88356890
    44  C          0.06968860       0.10406830       0.11643110
    45  H          0.94970000       0.82970000       0.85930000
    46  H          0.05030000       0.17030000       0.14070000
    47  C          0.94693140       0.00822170       0.83674890
    48  C          0.05306860      -0.00822170       0.16325110
    49  H          0.97890000       0.01870000       0.78050000
    50  H          0.02110000       0.98130000       0.21950000
    51  C          0.91542140       0.10451170       0.87470900
    52  C          0.08457860       0.89548830       0.12529100
    53  H          0.92650000       0.18080000       0.84490000
    54  H          0.07350000       0.81920000       0.15510000
    55  C          0.86675130       0.08419160       0.95870900
    56  C          0.13324870       0.91580840       0.04129100
    57  C          0.82872140       0.18832160       0.00002100
    58  C          0.17127860       0.81167840      -0.00002100
    59  C          0.71047150       0.25158160       0.11452110
    60  C          0.28952850       0.74841840       0.88547890
    61  H          0.67940000       0.31660000       0.07600000
    62  H          0.32060000       0.68340000       0.92400000
    63  H          0.77400000       0.28070000       0.14140000
    64  H          0.22600000       0.71930000       0.85860000
    65  C          0.61502140       0.19773160       0.17962110
    66  C          0.38497860       0.80226840       0.82037890
    67  C          0.64526150       0.11284160       0.24748110
    68  C          0.35473850       0.88715840       0.75251890
    69  H          0.72460000       0.09740000       0.25480000
    70  H          0.27540000       0.90260000       0.74520000
    71  C          0.55913140       0.05178150       0.30372100
    72  C          0.44086860       0.94821850       0.69627900
    73  C          0.43873140       0.07529160       0.29285100
    74  C          0.56126860       0.92470840       0.70714900
    75  C          0.40943150       0.16421170       0.22869110
    76  C          0.59056850       0.83578830       0.77130890
    77  H          0.33040000       0.18410000       0.22340000
    78  H          0.66960000       0.81590000       0.77660000
    79  C          0.49753150       0.22392170       0.17213110
    80  C          0.50246850       0.77607830       0.82786890
    81  H          0.47670000       0.28250000       0.12850000
    82  H          0.52330000       0.71750000       0.87150000
    83  C          0.23606140       0.03317170       0.34164110
    84  C          0.76393860       0.96682830       0.65835890
    85  H          0.21790000       0.04010000       0.28330000
    86  H          0.78210000       0.95990000       0.71670000
    87  H          0.21820000       0.10780000       0.36010000
    88  H          0.78180000       0.89220000       0.63990000
    89  C          0.16334150       0.93701160       0.39687110
    90  C          0.83665850       0.06298840       0.60312890
    91  H          0.20360000       0.90510000       0.44630000
    92  H          0.79640000       0.09490000       0.55370000
    93  H          0.08730000       0.96800000       0.41590000
    94  H          0.91270000       0.03200000       0.58410000
    95  C          0.08896150       0.74581170       0.39739110
    96  C          0.91103850       0.25418830       0.60260890
    97  H          0.01360000       0.76800000       0.42420000
    98  H          0.98640000       0.23200000       0.57580000
    99  H          0.13720000       0.70970000       0.44140000
   100  H          0.86280000       0.29030000       0.55860000
   101  C          0.06964140       0.66066170       0.33995110
   102  C          0.93035860       0.33933830       0.66004890
   103  H          0.03760000       0.58750000       0.37290000
   104  H          0.96240000       0.41250000       0.62710000
   105  H          0.01360000       0.69310000       0.30030000
   106  H          0.98640000       0.30690000       0.69970000
   107  C          0.17562150       0.54773180       0.24639120
   108  C          0.82437850       0.45226820       0.75360880
   109  H          0.10260000       0.55320000       0.21930000
   110  H          0.89740000       0.44680000       0.78070000
   111  H          0.17800000       0.47140000       0.28290000
   112  H          0.82200000       0.52860000       0.71710000
   113  C          0.27970140       0.56051180       0.18048110
   114  C          0.72029860       0.43948820       0.81951890
   115  H          0.27390000       0.50440000       0.14260000
   116  H          0.72610000       0.49560000       0.85740000
   117  H          0.28130000       0.63930000       0.14710000
   118  H          0.71870000       0.36070000       0.85290000
   119  C          0.49033140       0.54856150       0.17235100
   120  C          0.50966860       0.45143850       0.82764900
   121  C          0.59108140       0.51651150       0.21540100
   122  C          0.40891860       0.48348850       0.78459900
   123  C          0.70161140       0.52154160       0.17069100
   124  C          0.29838860       0.47845840       0.82930900
   125  H          0.76800000       0.49930000       0.19930000
   126  H          0.23200000       0.50070000       0.80070000
   127  C          0.71491140       0.55951150       0.08328110
   128  C          0.28508860       0.44048850       0.91671890
   129  C          0.61603150       0.59168160       0.04169110
   130  C          0.38396850       0.40831840       0.95830890
   131  H          0.62410000       0.61750000       0.98330000
   132  H          0.37590000       0.38250000       0.01670000
   133  C          0.50389150       0.58606160       0.08605110
   134  C          0.49610850       0.41393840       0.91394890
   135  H          0.43780000       0.60780000       0.05710000
   136  H          0.56220000       0.39220000       0.94290000
   137  C          0.83678150       0.56465160       0.03547110
   138  C          0.16321850       0.43534840       0.96452890
   139  H          0.89600000       0.54920000       0.07560000
   140  H          0.10400000       0.45080000       0.92440000
   141  H          0.84360000       0.50400000       0.00040000
   142  H          0.15640000       0.49600000      -0.00040000
   143  C          0.86886130       0.76762160       0.02563110
   144  C          0.13113870       0.23237840       0.97436890
   145  C          0.70322160       0.95786180       0.39025120
   146  C          0.29677840       0.04213820       0.60974880
   147  H          0.72870000       0.03380000       0.39990000
   148  H          0.27130000       0.96620000       0.60010000
   149  H          0.75380000       0.93650000       0.34310000
   150  H          0.24620000       0.06350000       0.65690000
   151  C          0.71353170       0.86789180       0.46742120
   152  C          0.28646830       0.13210820       0.53257880
   153  H          0.78640000       0.88000000       0.49160000
   154  H          0.21360000       0.12000000       0.50840000
   155  H          0.64780000       0.87590000       0.50940000
   156  H          0.35220000       0.12410000       0.49060000
   157  C          0.73300170       0.66572180       0.51767120
   158  C          0.26699830       0.33427820       0.48232880
   159  H          0.66860000       0.66630000       0.56190000
   160  H          0.33140000       0.33370000       0.43810000
   161  H          0.80590000       0.68240000       0.54010000
   162  H          0.19410000       0.31760000       0.45990000
   163  C          0.74096150       0.54837180       0.49168130
   164  C          0.25903850       0.45162820       0.50831870
   165  H          0.79930000       0.55020000       0.44320000
   166  H          0.20070000       0.44980000       0.55680000
   167  H          0.76530000       0.48980000       0.53770000
   168  H          0.23470000       0.51020000       0.46230000
   169  C          0.62755160       0.41108170       0.43829110
   170  C          0.37244840       0.58891830       0.56170890
   171  H          0.54850000       0.37810000       0.44950000
   172  H          0.45150000       0.62190000       0.55050000
   173  H          0.68060000       0.35540000       0.46820000
   174  H          0.31940000       0.64460000       0.53180000
   175  C          0.66429160       0.42633190       0.34517110
   176  C          0.33570840       0.57366810       0.65482890
   177  H          0.73620000       0.47270000       0.33130000
   178  H          0.26380000       0.52730000       0.66870000
   179  H          0.67940000       0.35010000       0.32840000
   180  H          0.32060000       0.64990000       0.67160000
   181  N          0.47544110       0.78006130       0.27336800
   182  N          0.52455890       0.21993870       0.72663200
   183  C          0.44903150       0.71771160       0.36122100
   184  C          0.55096850       0.28228840       0.63877900
   185  H          0.41950000       0.77290000       0.39660000
   186  H          0.58050000       0.22710000       0.60340000
   187  H          0.51990000       0.68150000       0.38160000
   188  H          0.48010000       0.31850000       0.61840000
   189  H          0.39050000       0.65820000       0.36260000
   190  H          0.60950000       0.34180000       0.63740000
   191  C          0.58816140       0.79706160       0.23879110
   192  C          0.41183860       0.20293840       0.76120890
   193  H          0.64990000       0.76680000       0.27000000
   194  H          0.35010000       0.23320000       0.73000000
   195  C          0.61265140       0.85846160       0.15826100
   196  C          0.38734860       0.14153840       0.84173900
   197  H          0.69090000       0.87070000       0.13570000
   198  H          0.30910000       0.12930000       0.86430000
   199  C          0.52169140       0.90278160       0.10970100
   200  C          0.47830860       0.09721840       0.89029900
   201  C          0.40665140       0.88342160       0.14785100
   202  C          0.59334860       0.11657840       0.85214900
   203  H          0.34330000       0.91210000       0.11780000
   204  H          0.65670000       0.08790000       0.88220000
   205  C          0.38536140       0.82280160       0.22884100
   206  C          0.61463860       0.17719840       0.77115900
   207  H          0.30790000       0.81110000       0.25330000
   208  H          0.69210000       0.18890000       0.74670000
   209  C          0.54999140       0.96638170       0.02073110
   210  C          0.45000860       0.03361830       0.97926890
   211  H          0.57930000       0.90920000       0.98600000
   212  H          0.42070000       0.09080000       0.01400000
   213  H          0.61380000       0.02120000       0.02060000
   214  H          0.38620000       0.97880000       0.97940000
