data_REHMUM
_symmetry_space_group_name_H-M    'P1'
_symmetry_Int_Tables_number       1
loop_
_symmetry_equiv_pos_site_id
_symmetry_equiv_pos_as_xyz
1 x,y,z
_cell_length_a                   7.88905
_cell_length_b                   30.0043
_cell_length_c                   8.9362
_cell_angle_alpha                90.0
_cell_angle_beta                 91.4931
_cell_angle_gamma                90.0
loop_
_atom_site_label
_atom_site_type_symbol
_atom_site_fract_x
_atom_site_fract_y
_atom_site_fract_z
     1  N          0.66152000       0.46146500       0.31682000
     2  N          0.33848000       0.96146500       0.18318000
     3  N          0.33848000       0.53853500       0.68318000
     4  N          0.66152000       0.03853500       0.81682000
     5  N          0.78532000       0.34705500       0.51422000
     6  N          0.21468000       0.84705500      -0.01422000
     7  N          0.21468000       0.65294500       0.48578000
     8  N          0.78532000       0.15294500       0.01422000
     9  N          0.00862000       0.34070500       0.84122000
    10  N         -0.00862000       0.84070500       0.65878000
    11  N         -0.00862000       0.65929500       0.15878000
    12  N          0.00862000       0.15929500       0.34122000
    13  N          0.89428000       0.46019500       0.64212000
    14  N          0.10572000       0.96019500       0.85788000
    15  N          0.10572000       0.53980500       0.35788000
    16  N          0.89428000       0.03980500       0.14212000
    17  C          0.29152000       0.44060500       0.50523150
    18  C          0.70848000       0.94060500      -0.00523150
    19  C          0.70848000       0.55939500       0.49476850
    20  C          0.29152000       0.05939500       0.00523150
    21  H          0.26332000       0.46737500       0.45836150
    22  H          0.73668000       0.96737500       0.04163850
    23  H          0.73668000       0.53262500       0.54163850
    24  H          0.26332000       0.03262500       0.95836150
    25  C          0.44742000       0.42108500       0.48201150
    26  C          0.55258000       0.92108500       0.01798850
    27  C          0.55258000       0.57891500       0.51798850
    28  C          0.44742000       0.07891500       0.98201150
    29  C          0.48922000       0.38057500       0.55140140
    30  C          0.51078000       0.88057500       0.94859860
    31  C          0.51078000       0.61942500       0.44859860
    32  C          0.48922000       0.11942500       0.05140140
    33  C          0.37332000       0.35964500       0.64183150
    34  C          0.62668000       0.85964500       0.85816850
    35  C          0.62668000       0.64035500       0.35816850
    36  C          0.37332000       0.14035500       0.14183150
    37  H          0.39972000       0.33232500       0.68570150
    38  H          0.60028000       0.83232500       0.81429850
    39  H          0.60028000       0.66767500       0.31429850
    40  H          0.39972000       0.16767500       0.18570150
    41  C          0.21802000       0.37945500       0.66680150
    42  C          0.78198000       0.87945500       0.83319850
    43  C          0.78198000       0.62054500       0.33319850
    44  C          0.21802000       0.12054500       0.16680150
    45  C          0.17732000       0.42022500       0.59842000
    46  C          0.82268000       0.92022500       0.90158000
    47  C          0.82268000       0.57977500       0.40158000
    48  C          0.17732000       0.07977500       0.09842000
    49  C          0.56682000       0.44308500       0.38852000
    50  C          0.43318000       0.94308500       0.11148000
    51  C          0.43318000       0.55691500       0.61148000
    52  C          0.56682000       0.05691500       0.88852000
    53  C          0.65352000       0.36115500       0.53032000
    54  C          0.34648000       0.86115500       0.96968000
    55  C          0.34648000       0.63884500       0.46968000
    56  C          0.65352000       0.13884500       0.03032000
    57  C          0.10012000       0.35807500       0.76372000
    58  C          0.89988000       0.85807500       0.73628000
    59  C          0.89988000       0.64192500       0.23628000
    60  C          0.10012000       0.14192500       0.26372000
    61  C          0.01852000       0.44197500       0.62382000
    62  C          0.98148000       0.94197500       0.87618000
    63  C          0.98148000       0.55802500       0.37618000
    64  C          0.01852000       0.05802500       0.12382000
    65  C          0.45842000       0.26486500       0.31682000
    66  C          0.54158000       0.76486500       0.18318000
    67  C          0.54158000       0.73513500       0.68318000
    68  C          0.45842000       0.23513500       0.81682000
    69  C          0.61672000       0.24387600       0.29762000
    70  C          0.38328000       0.74387600       0.20238000
    71  C          0.38328000       0.75612400       0.70238000
    72  C          0.61672000       0.25612400       0.79762000
    73  H          0.63772000       0.21633600       0.34212000
    74  H          0.36228000       0.71633600       0.15788000
    75  H          0.36228000       0.78366400       0.65788000
    76  H          0.63772000       0.28366400       0.84212000
    77  C          0.73792000       0.26316600       0.21582000
    78  C          0.26208000       0.76316600       0.28418000
    79  C          0.26208000       0.73683400       0.78418000
    80  C          0.73792000       0.23683400       0.71582000
    81  H          0.84192000       0.24904600       0.20552000
    82  H          0.15808000       0.74904600       0.29448000
    83  H          0.15808000       0.75095400       0.79448000
    84  H          0.84192000       0.25095400       0.70552000
    85  C          0.70802000       0.30397500       0.14702000
    86  C          0.29198000       0.80397500       0.35298000
    87  C          0.29198000       0.69602500       0.85298000
    88  C          0.70802000       0.19602500       0.64702000
    89  H          0.79362000       0.31683500       0.09182000
    90  H          0.20638000       0.81683500       0.40818000
    91  H          0.20638000       0.68316500       0.90818000
    92  H          0.79362000       0.18316500       0.59182000
    93  C          0.55522000       0.32613500       0.15768130
    94  C          0.44478000       0.82613500       0.34231870
    95  C          0.44478000       0.67386500       0.84231870
    96  C          0.55522000       0.17386500       0.65768130
    97  C          0.42602000       0.30661400       0.24504130
    98  C          0.57398000       0.80661400       0.25495870
    99  C          0.57398000       0.69338600       0.75495870
   100  C          0.42602000       0.19338600       0.74504130
   101  C          0.26532000       0.32755500       0.26117140
   102  C          0.73468000       0.82755500       0.23882860
   103  C          0.73468000       0.67244500       0.73882860
   104  C          0.26532000       0.17244500       0.76117140
   105  C          0.14592000       0.30634600       0.34652000
   106  C          0.85408000       0.80634600       0.15348000
   107  C          0.85408000       0.69365400       0.65348000
   108  C          0.14592000       0.19365400       0.84652000
   109  H          0.04012000       0.31947600       0.35722000
   110  H          0.95988000       0.81947600       0.14278000
   111  H          0.95988000       0.68052400       0.64278000
   112  H          0.04012000       0.18052400       0.85722000
   113  C          0.18042000       0.26567600       0.41692000
   114  C          0.81958000       0.76567600       0.08308000
   115  C          0.81958000       0.73432400       0.58308000
   116  C          0.18042000       0.23432400       0.91692000
   117  H          0.09832000       0.25244600       0.47512000
   118  H          0.90168000       0.75244600       0.02488000
   119  H          0.90168000       0.74755400       0.52488000
   120  H          0.09832000       0.24755400       0.97512000
   121  C          0.33122000       0.24540600       0.40152000
   122  C          0.66878000       0.74540600       0.09848000
   123  C          0.66878000       0.75459400       0.59848000
   124  C          0.33122000       0.25459400       0.90152000
   125  H          0.35122000       0.21807600       0.44782000
   126  H          0.64878000       0.71807600       0.05218000
   127  H          0.64878000       0.78192400       0.55218000
   128  H          0.35122000       0.28192400       0.94782000
   129  C          0.32522000       0.43020500       0.01962000
   130  C          0.67478000       0.93020500       0.48038000
   131  C          0.67478000       0.56979500       0.98038000
   132  C          0.32522000       0.06979500       0.51962000
   133  C          0.44933000       0.44853600       0.92808000
   134  C          0.55067000       0.94853600       0.57192000
   135  C          0.55067000       0.55146400       0.07192000
   136  C          0.44933000       0.05146400       0.42808000
   137  H          0.42803000       0.47528600       0.87848000
   138  H          0.57197000       0.97528600       0.62152000
   139  H          0.57197000       0.52471400       0.12152000
   140  H          0.42803000       0.02471400       0.37848000
   141  C          0.59913000       0.42776600       0.91138000
   142  C          0.40087000       0.92776600       0.58862000
   143  C          0.40087000       0.57223400       0.08862000
   144  C          0.59913000       0.07223400       0.41138000
   145  H          0.67963000       0.44023600       0.84978000
   146  H          0.32037000       0.94023600       0.65022000
   147  H          0.32037000       0.55976400       0.15022000
   148  H          0.67963000       0.05976400       0.34978000
   149  C          0.63512000       0.38763500      -0.01422000
   150  C          0.36488000       0.88763500       0.51422000
   151  C          0.36488000       0.61236500       0.01422000
   152  C          0.63512000       0.11236500       0.48578000
   153  H          0.73952000       0.37396500       0.97288000
   154  H          0.26048000       0.87396500       0.52712000
   155  H          0.26048000       0.62603500       0.02712000
   156  H          0.73952000       0.12603500       0.47288000
   157  C          0.51892000       0.36801500       0.07752140
   158  C          0.48108000       0.86801500       0.42247860
   159  C          0.48108000       0.63198500       0.92247860
   160  C          0.51892000       0.13198500       0.57752140
   161  C          0.35862000       0.38917400       0.09510140
   162  C          0.64138000       0.88917400       0.40489860
   163  C          0.64138000       0.61082600       0.90489860
   164  C          0.35862000       0.11082600       0.59510140
   165  C          0.23142000       0.37024500       0.18574140
   166  C          0.76858000       0.87024500       0.31425860
   167  C          0.76858000       0.62975500       0.81425860
   168  C          0.23142000       0.12975500       0.68574140
   169  C          0.08052000       0.39280600       0.20102000
   170  C          0.91948000       0.89280600       0.29898000
   171  C          0.91948000       0.60719400       0.79898000
   172  C          0.08052000       0.10719400       0.70102000
   173  H         -0.00252000       0.38066600       0.26072000
   174  H          0.00252000       0.88066600       0.23928000
   175  H          0.00252000       0.61933400       0.73928000
   176  H         -0.00252000       0.11933400       0.76072000
   177  C          0.04942000       0.43329600       0.12932000
   178  C          0.95058000       0.93329600       0.37068000
   179  C          0.95058000       0.56670400       0.87068000
   180  C          0.04942000       0.06670400       0.62932000
   181  H          0.94678000       0.44789600       0.14212000
   182  H          0.05322000       0.94789600       0.35788000
   183  H          0.05322000       0.55210400       0.85788000
   184  H          0.94678000       0.05210400       0.64212000
   185  C          0.16763000       0.45149600       0.04112000
   186  C          0.83237000       0.95149600       0.45888000
   187  C          0.83237000       0.54850400       0.95888000
   188  C          0.16763000       0.04850400       0.54112000
   189  H          0.14503000       0.47851600      -0.00642000
   190  H          0.85497000       0.97851600       0.50642000
   191  H          0.85497000       0.52148400       0.00642000
   192  H          0.14503000       0.02148400       0.49358000
