data_REHSEG
_symmetry_space_group_name_H-M    'P1'
_symmetry_Int_Tables_number       1
loop_
_symmetry_equiv_pos_site_id
_symmetry_equiv_pos_as_xyz
1 x,y,z
_cell_length_a                   4.195601
_cell_length_b                   10.84803
_cell_length_c                   13.53014
_cell_angle_alpha                99.1382
_cell_angle_beta                 93.3082
_cell_angle_gamma                93.3702
loop_
_atom_site_label
_atom_site_type_symbol
_atom_site_fract_x
_atom_site_fract_y
_atom_site_fract_z
     1  S          0.95075120       0.90900500       0.25164400
     2  S          0.04924880       0.09099500       0.74835600
     3  S          0.19238130       0.84319500       0.91944600
     4  S          0.80761870       0.15680500       0.08055400
     5  S          0.25861130       0.48141400       0.13528400
     6  S          0.74138870       0.51858600       0.86471600
     7  N          0.25624000       0.67497140       0.03872120
     8  N          0.74376000       0.32502860       0.96127880
     9  N          0.58724000       0.70063140       0.18324120
    10  N          0.41276000       0.29936860       0.81675880
    11  N          0.56474000       0.85758150       0.08704120
    12  N          0.43526000       0.14241850       0.91295880
    13  C          0.69154000       0.81968170       0.17236140
    14  C          0.30846000       0.18031830       0.82763860
    15  C          0.34514000       0.79108170       0.01880140
    16  C          0.65486000       0.20891830       0.98119860
    17  C          0.37194000       0.62449160       0.11881140
    18  C          0.62806000       0.37550840       0.88118860
    19  H          0.66050000       0.67620000       0.23720000
    20  H          0.33950000       0.32380000       0.76280000
    21  H          0.12460000       0.63320000      -0.00471900
    22  H          0.87540000       0.36680000       0.00471900
    23  H          0.62160000       0.92930000       0.08341900
    24  H          0.37840000       0.07070000       0.91658100
    25  S          0.84356140       0.58823500       0.37484400
    26  S          0.15643860       0.41176500       0.62515600
    27  N          0.75765000       0.64575170       0.56843130
    28  N          0.24235000       0.35424830       0.43156870
    29  C          0.70825000       0.67781180       0.47653150
    30  C          0.29175000       0.32218820       0.52346850
    31  C          0.54305000       0.78702000       0.47437170
    32  C          0.45695000       0.21298000       0.52562830
    33  H          0.49850000       0.81385800       0.41341500
    34  H          0.50150000       0.18614200       0.58658500
    35  C          0.51136000       0.81612000       0.65271180
    36  C          0.48864000       0.18388000       0.34728820
    37  H          0.44946000       0.86243800       0.71149500
    38  H          0.55054000       0.13756200       0.28850500
    39  C          0.44806000       0.85332000       0.55999190
    40  C          0.55194000       0.14668000       0.44000810
    41  H          0.33884500       0.92492400       0.55675600
    42  H          0.66115500       0.07507600       0.44324400
    43  C          0.66527000       0.71062000       0.65441180
    44  C          0.33473000       0.28938000       0.34558820
    45  H          0.70781900       0.68247900       0.71495900
    46  H          0.29218100       0.31752100       0.28504100
    47  H          0.86060000       0.58030000       0.57120000
    48  H          0.13940000       0.41970000       0.42880000
