data_REHSOQ
_symmetry_space_group_name_H-M    'P1'
_symmetry_Int_Tables_number       1
loop_
_symmetry_equiv_pos_site_id
_symmetry_equiv_pos_as_xyz
1 x,y,z
_cell_length_a                   4.114001
_cell_length_b                   12.371501
_cell_length_c                   23.82142
_cell_angle_alpha                90.0
_cell_angle_beta                 90.32001
_cell_angle_gamma                90.0
loop_
_atom_site_label
_atom_site_type_symbol
_atom_site_fract_x
_atom_site_fract_y
_atom_site_fract_z
     1  S          0.29981120       0.47960300       0.57314200
     2  S          0.20018880       0.97960300       0.92685800
     3  S          0.70018880       0.52039700       0.42685800
     4  S          0.79981120       0.02039700       0.07314200
     5  S          0.67936140       0.07252400       0.57577200
     6  S          0.82063860       0.57252400       0.92422800
     7  S          0.32063860       0.92747600       0.42422800
     8  S          0.17936140       0.42747600       0.07577200
     9  S          0.01849160       0.22455400       0.40245200
    10  S          0.48150840       0.72455400       0.09754800
    11  S         -0.01849160       0.77544600       0.59754800
    12  S          0.51849160       0.27544600       0.90245200
    13  N          0.47624000       0.27453110       0.56649600
    14  N          0.02376000       0.77453110       0.93350400
    15  N          0.52376000       0.72546890       0.43350400
    16  N         -0.02376000       0.22546890       0.06649600
    17  N          0.17684000       0.33907120       0.49206600
    18  N          0.32316000       0.83907120       0.00793400
    19  N          0.82316000       0.66092880       0.50793400
    20  N          0.67684000       0.16092880       0.99206600
    21  N          0.34884000       0.16320130       0.49263600
    22  N          0.15116000       0.66320130       0.00736400
    23  N          0.65116000       0.83679870       0.50736400
    24  N          0.84884000       0.33679870       0.99263600
    25  C          0.31814000       0.36020130       0.54302700
    26  C          0.18186000       0.86020130       0.95697300
    27  C          0.68186000       0.63979870       0.45697300
    28  C          0.81814000       0.13979870       0.04302700
    29  C          0.49364000       0.17403130       0.54391700
    30  C          0.00636000       0.67403130       0.95608300
    31  C          0.50636000       0.82596870       0.45608300
    32  C         -0.00636000       0.32596870       0.04391700
    33  C          0.18795000       0.24287140       0.46427700
    34  C          0.31205000       0.74287140       0.03572300
    35  C          0.81205000       0.75712860       0.53572300
    36  C          0.68795000       0.25712860       0.96427700
    37  H          0.56850000       0.28311700       0.59639000
    38  H          0.93150000       0.78311700       0.90361000
    39  H          0.43150000       0.71688300       0.40361000
    40  H          0.06850000       0.21688300       0.09639000
    41  H          0.08850000       0.38791800       0.47619000
    42  H          0.41150000       0.88791800       0.02381000
    43  H          0.91150000       0.61208200       0.52381000
    44  H          0.58850000       0.11208200       0.97619000
    45  H          0.35950000       0.10151900       0.47749000
    46  H          0.14050000       0.60151900       0.02251000
    47  H          0.64050000       0.89848100       0.52251000
    48  H          0.85950000       0.39848100       0.97749000
    49  S          0.89460120       0.27112300       0.68090200
    50  S          0.60539880       0.77112300       0.81909800
    51  S          0.10539880       0.72887700       0.31909800
    52  S          0.39460120       0.22887700       0.18090200
    53  N          0.15235000       0.57320140       0.77404700
    54  N          0.34765000       0.07320140       0.72595300
    55  N          0.84765000       0.42679860       0.22595300
    56  N          0.65235000       0.92679860       0.27404700
    57  C         -0.01606000       0.38643130       0.71730700
    58  C          0.51606000       0.88643130       0.78269300
    59  C          0.01606000       0.61356870       0.28269300
    60  C          0.48394000       0.11356870       0.21730700
    61  C          0.88825000       0.48912140       0.69832700
    62  C          0.61175000      -0.01087860       0.80167300
    63  C          0.11175000       0.51087860       0.30167300
    64  C          0.38825000       0.01087860       0.19832700
    65  H          0.76413700       0.49510200       0.66571700
    66  H          0.73586300      -0.00489800       0.83428300
    67  H          0.23586300       0.50489800       0.33428300
    68  H          0.26413700       0.00489800       0.16571700
    69  C          0.16075000       0.38473150       0.76818800
    70  C          0.33925000       0.88473150       0.73181200
    71  C          0.83925000       0.61526850       0.23181200
    72  C          0.66075000       0.11526850       0.26818800
    73  H          0.22258700       0.31886300       0.78372300
    74  H          0.27741300       0.81886300       0.71627700
    75  H          0.77741300       0.68113700       0.21627700
    76  H          0.72258700       0.18113700       0.28372300
    77  C         -0.02624000       0.57938160       0.72671800
    78  C          0.52624000       0.07938160       0.77328200
    79  C          0.02624000       0.42061840       0.27328200
    80  C          0.47376000       0.92061840       0.22671800
    81  H          0.90823400       0.64662000       0.71334700
    82  H          0.59176600       0.14662000       0.78665300
    83  H          0.09176600       0.35338000       0.28665300
    84  H          0.40823400       0.85338000       0.21334700
    85  C          0.24156000       0.47803170       0.79472900
    86  C          0.25844000       0.97803170       0.70527100
    87  C          0.75844000       0.52196830       0.20527100
    88  C          0.74156000       0.02196830       0.29472900
    89  H          0.36132800       0.47526500       0.82791400
    90  H          0.13867200       0.97526500       0.67208600
    91  H          0.63867200       0.52473500       0.17208600
    92  H          0.86132800       0.02473500       0.32791400
    93  H          0.22360000       0.63020000       0.78931100
    94  H          0.27640000       0.13020000       0.71068900
    95  H          0.77640000       0.36980000       0.21068900
    96  H          0.72360000       0.86980000       0.28931100
