data_REHTII
_symmetry_space_group_name_H-M    'P1'
_symmetry_Int_Tables_number       1
loop_
_symmetry_equiv_pos_site_id
_symmetry_equiv_pos_as_xyz
1 x,y,z
_cell_length_a                   5.02371
_cell_length_b                   22.2925
_cell_length_c                   6.885114
_cell_angle_alpha                90.0
_cell_angle_beta                 107.913
_cell_angle_gamma                90.0
loop_
_atom_site_label
_atom_site_type_symbol
_atom_site_fract_x
_atom_site_fract_y
_atom_site_fract_z
     1  O          0.60615000       0.91804900       0.08853000
     2  O          0.39385000       0.41804900       0.91147000
     3  O          0.57064000       0.82097900       0.14763000
     4  O          0.42936000       0.32097900       0.85237000
     5  N          0.01794000       0.81185100       0.45193000
     6  N         -0.01794000       0.31185100       0.54807000
     7  N          0.10945000       0.99217100       0.87923000
     8  N          0.89055000       0.49217100       0.12077000
     9  N          0.46206000       0.04098140       0.11554000
    10  N          0.53794000       0.54098140       0.88446000
    11  N          0.07205000       0.09347110       0.93434000
    12  N          0.92795000       0.59347110       0.06566000
    13  C          0.69345000       0.87113110       0.17883000
    14  C          0.30655000       0.37113110       0.82117000
    15  C         -0.01746000       0.87000110       0.34063000
    16  C          0.01746000       0.37000110       0.65937000
    17  C          0.03345000       0.92318110       0.48784000
    18  C         -0.03345000       0.42318110       0.51216000
    19  C          0.81555000       0.93024110       0.59914000
    20  C          0.18445000       0.43024110       0.40086000
    21  C          0.84325000       0.98869110       0.71574000
    22  C          0.15675000       0.48869110       0.28426000
    23  C          0.21165000       0.04265120       0.97624000
    24  C          0.78835000       0.54265120       0.02376000
    25  H          0.94980000       0.78120000       0.35460000
    26  H          0.05020000       0.28120000       0.64540000
    27  H          0.92180000       0.81111800       0.53960000
    28  H          0.07820000       0.31111800       0.46040000
    29  H          0.21980000       0.80521700       0.52650000
    30  H          0.78020000       0.30521700       0.47350000
    31  H          0.20280000       0.96031800       0.91760000
    32  H          0.79720000       0.46031800       0.08240000
    33  H          0.55290000       0.01120000       0.12360000
    34  H          0.44710000       0.51120000       0.87640000
    35  H          0.52480000       0.07231800       0.19260000
    36  H          0.47520000       0.57231800       0.80740000
    37  H          0.14580000       0.12211900       0.01060000
    38  H          0.85420000       0.62211900      -0.01060000
    39  H          0.90690000       0.09251900       0.85860000
    40  H          0.09310000       0.59251900       0.14140000
    41  H          0.11780000       0.87131800       0.25960000
    42  H          0.88220000       0.37131800       0.74040000
    43  H          0.21580000       0.91871900       0.58660000
    44  H          0.78420000       0.41871900       0.41340000
    45  H          0.04680000       0.95931800       0.40160000
    46  H          0.95320000       0.45931800       0.59840000
    47  H          0.83280000       0.89661700       0.69560000
    48  H          0.16720000       0.39661700       0.30440000
    49  H          0.62280000       0.93091900       0.50050000
    50  H          0.37720000       0.43091900       0.49950000
    51  H          0.69480000      -0.00528200       0.78460000
    52  H          0.30520000       0.49471800       0.21540000
    53  H          0.81880000       0.02321800       0.62260000
    54  H          0.18120000       0.52321800       0.37740000
    55  O          0.10514000       0.80611800       0.90567000
    56  O          0.89486000       0.30611800       0.09433000
    57  O          0.09794000       0.72117900       0.07493000
    58  O          0.90206000       0.22117900       0.92507000
    59  O          0.59126000       0.69542800       0.80807000
    60  O          0.40874000       0.19542800       0.19193000
    61  O          0.58656000       0.78637900       0.66977000
    62  O          0.41344000       0.28637900       0.33023000
    63  C         -0.00745000       0.75712100       0.93987000
    64  C          0.00745000       0.25712100       0.06013000
    65  C          0.69346000       0.74591110       0.79006000
    66  C          0.30654000       0.24591110       0.20994000
    67  H          0.31980000       0.81351800       0.01560000
    68  H          0.68020000       0.31351800      -0.01560000
    69  O          0.50104000       0.60862900       0.35794000
    70  O          0.49896000       0.10862900       0.64206000
    71  O          0.62004000       0.70258800       0.31203000
    72  O          0.37996000       0.20258800       0.68797000
    73  O          0.04274000       0.59411900       0.61703000
    74  O          0.95726000       0.09411900       0.38297000
    75  O          0.09814000       0.69210900       0.57733000
    76  O          0.90186000       0.19210900       0.42267000
    77  C          0.96125000       0.64222110       0.54334000
    78  C          0.03875000       0.14222110       0.45666000
    79  C          0.66495000       0.64906110       0.39164000
    80  C          0.33505000       0.14906110       0.60836000
    81  H          0.45280000       0.70851700       0.22360000
    82  H          0.54720000       0.20851700       0.77640000
    83  H          0.28080000       0.68601900       0.67460000
    84  H          0.71920000       0.18601900       0.32540000
