data_RENLEB
_symmetry_space_group_name_H-M    'P1'
_symmetry_Int_Tables_number       1
loop_
_symmetry_equiv_pos_site_id
_symmetry_equiv_pos_as_xyz
1 x,y,z
_cell_length_a                   9.90719
_cell_length_b                   12.9661
_cell_length_c                   13.1381
_cell_angle_alpha                112.7457
_cell_angle_beta                 98.7937
_cell_angle_gamma                97.3157
loop_
_atom_site_label
_atom_site_type_symbol
_atom_site_fract_x
_atom_site_fract_y
_atom_site_fract_z
     1  Cl         0.15169600       0.13616500       0.31742500
     2  Cl         0.84830400       0.86383500       0.68257500
     3  Cl         0.10652700       0.29179600       0.54559600
     4  Cl         0.89347300       0.70820400       0.45440400
     5  P          0.43028600       0.24475500       0.22992400
     6  P          0.56971400       0.75524500       0.77007600
     7  N          0.30012000       0.14822000       0.52051000
     8  N          0.69988000       0.85178000       0.47949000
     9  C          0.36562000       0.32782000       0.47712000
    10  C          0.63438000       0.67218000       0.52288000
    11  C          0.19233000       0.05472000       0.51902000
    12  C          0.80767000       0.94528000       0.48098000
    13  C          0.38903000       0.21062000       0.63712000
    14  C          0.61097000       0.78938000       0.36288000
    15  C          0.34772000       0.36102000       0.29662000
    16  C          0.65228000       0.63898000       0.70338000
    17  C          0.33042000       0.39302000       0.40752000
    18  C          0.66958000       0.60698000       0.59248000
    19  C          0.27693000       0.49132000       0.45362000
    20  C          0.72307000       0.50868000       0.54638000
    21  C          0.24613000       0.55592000       0.39442000
    22  C          0.75387000       0.44408000       0.60558000
    23  C          0.26333000       0.52302000       0.28512000
    24  C          0.73667000       0.47698000       0.71488000
    25  C          0.31243000       0.42522000       0.23582000
    26  C          0.68757000       0.57478000       0.76418000
    27  C          0.34773000       0.16912000       0.08272000
    28  C          0.65227000       0.83088000       0.91728000
    29  C          0.20323000       0.14313000       0.04782000
    30  C          0.79677000       0.85687000       0.95218000
    31  C          0.14103000       0.07993000       0.93427000
    32  C          0.85897000       0.92007000       0.06573000
    33  C          0.22194000       0.04553000       0.85618000
    34  C          0.77806000       0.95447000       0.14382000
    35  C          0.36314000       0.07123000       0.88928000
    36  C          0.63686000       0.92877000       0.11072000
    37  C          0.42743000       0.13302000       0.00262000
    38  C          0.57257000       0.86698000      -0.00262000
    39  C          0.61102000       0.29882000       0.24542000
    40  C          0.38898000       0.70118000       0.75458000
    41  C          0.70923000       0.24952000       0.28642000
    42  C          0.29077000       0.75048000       0.71358000
    43  C          0.84893000       0.29293000       0.30093000
    44  C          0.15107000       0.70707000       0.69907000
    45  C          0.88953000       0.38163000       0.27393000
    46  C          0.11047000       0.61837000       0.72607000
    47  C          0.79303000       0.42943000       0.23203000
    48  C          0.20697000       0.57057000       0.76797000
    49  C          0.65303000       0.38882000       0.21672000
    50  C          0.34697000       0.61118000       0.78328000
    51  B          0.24053000       0.23072000       0.46932000
    52  B          0.75947000       0.76928000       0.53068000
    53  H          0.43730000       0.17320000       0.27420000
    54  H          0.56270000       0.82680000       0.72580000
    55  H          0.35830000       0.11420000       0.47520000
    56  H          0.64170000       0.88580000       0.52480000
    57  H          0.44120000       0.29120000       0.46120000
    58  H          0.55880000       0.70880000       0.53880000
    59  H          0.39520000       0.38120000       0.55420000
    60  H          0.60480000       0.61880000       0.44580000
    61  H          0.23330000       0.00220000       0.53420000
    62  H          0.76670000      -0.00220000       0.46580000
    63  H          0.14440000       0.09630000       0.57930000
    64  H          0.85560000       0.90370000       0.42070000
    65  H          0.14130000       0.01220000       0.44420000
    66  H          0.85870000      -0.01220000       0.55580000
    67  H          0.42330000       0.15720000       0.66120000
    68  H          0.57670000       0.84280000       0.33880000
    69  H          0.45830000       0.25620000       0.63520000
    70  H          0.54170000       0.74380000       0.36480000
    71  H          0.34130000       0.26120000       0.69220000
    72  H          0.65870000       0.73880000       0.30780000
    73  H          0.26330000       0.51320000       0.52520000
    74  H          0.73670000       0.48680000       0.47480000
    75  H          0.21430000       0.62520000       0.43120000
    76  H          0.78570000       0.37480000       0.56880000
    77  H          0.24130000       0.56620000       0.24420000
    78  H          0.75870000       0.43380000       0.75580000
    79  H          0.32230000       0.40620000       0.16620000
    80  H          0.67770000       0.59380000       0.83380000
    81  H          0.14930000       0.16520000       0.10220000
    82  H          0.85070000       0.83480000       0.89780000
    83  H          0.04340000       0.06830000       0.91370000
    84  H          0.95660000       0.93170000       0.08630000
    85  H          0.18530000      -0.00330000       0.77670000
    86  H          0.81470000       0.00330000       0.22330000
    87  H          0.41230000       0.05420000       0.83880000
    88  H          0.58770000       0.94580000       0.16120000
    89  H          0.52630000       0.14720000       0.02620000
    90  H          0.47370000       0.85280000       0.97380000
    91  H          0.68030000       0.19520000       0.31020000
    92  H          0.31970000       0.80480000       0.68980000
    93  H          0.91240000       0.27130000       0.33330000
    94  H          0.08760000       0.72870000       0.66670000
    95  H         -0.01860000       0.41230000       0.28630000
    96  H          0.01860000       0.58770000       0.71370000
    97  H          0.81140000       0.49930000       0.21230000
    98  H          0.18860000       0.50070000       0.78770000
    99  H          0.58830000       0.42420000       0.19120000
   100  H          0.41170000       0.57580000       0.80880000
   101  Cl         0.47552800       0.93238500       0.61886500
   102  Cl         0.52447200       0.06761500       0.38113500
   103  C          0.47935000       0.60623000       0.06163000
   104  C          0.52065000       0.39377000       0.93837000
   105  C          0.36874000       0.51343000       0.01093000
   106  C          0.63126000       0.48657000      -0.01093000
   107  C          0.61024000       0.59163000       0.04973000
   108  C          0.38976000       0.40837000       0.95027000
   109  H          0.45430000       0.67120000       0.09420000
   110  H          0.54570000       0.32880000       0.90580000
   111  H          0.67840000       0.64730000       0.07730000
   112  H          0.32160000       0.35270000       0.92270000
   113  H          0.27940000       0.52630000       0.01830000
   114  H          0.72060000       0.47370000       0.98170000
   115  C          0.23485000       0.83664000       0.14304000
   116  C          0.76515000       0.16336000       0.85696000
   117  C          0.15285000       0.76684000       0.04075000
   118  C          0.84715000       0.23316000       0.95925000
   119  C          0.04835000       0.68564000       0.03195000
   120  C          0.95165000       0.31436000       0.96805000
   121  C          0.02395000       0.67424000       0.12805000
   122  C          0.97605000       0.32576000       0.87195000
   123  C          0.10815000       0.74804000       0.23175000
   124  C          0.89185000       0.25196000       0.76825000
   125  C          0.21395000       0.82654000       0.23644000
   126  C          0.78605000       0.17346000       0.76356000
   127  H          0.31090000       0.89550000       0.14750000
   128  H          0.68910000       0.10450000       0.85250000
   129  H          0.17120000       0.77680000       0.97350000
   130  H          0.82880000       0.22320000       0.02650000
   131  H         -0.00910000       0.63590000       0.95650000
   132  H          0.00910000       0.36410000       0.04350000
   133  H          0.94790000       0.61370000       0.12060000
   134  H          0.05210000       0.38630000       0.87940000
   135  H          0.08720000       0.74030000       0.29930000
   136  H          0.91280000       0.25970000       0.70070000
   137  H          0.27480000       0.87630000       0.31030000
   138  H          0.72520000       0.12370000       0.68970000
