data_REQGIH
_symmetry_space_group_name_H-M    'P1'
_symmetry_Int_Tables_number       1
loop_
_symmetry_equiv_pos_site_id
_symmetry_equiv_pos_as_xyz
1 x,y,z
_cell_length_a                   7.83073
_cell_length_b                   8.19153
_cell_length_c                   10.26936
_cell_angle_alpha                75.0783
_cell_angle_beta                 76.0372
_cell_angle_gamma                85.7693
loop_
_atom_site_label
_atom_site_type_symbol
_atom_site_fract_x
_atom_site_fract_y
_atom_site_fract_z
     1  Br         0.84552800       0.78857800       0.58182600
     2  Br         0.15447200       0.21142200       0.41817400
     3  Br         0.84930900       0.08142800       0.80428600
     4  Br         0.15069100       0.91857200       0.19571400
     5  O          0.78536000       0.40176000       0.61275000
     6  O          0.21464000       0.59824000       0.38725000
     7  H          0.78449800       0.48981600       0.54919700
     8  H          0.21550200       0.51018400       0.45080300
     9  C          0.84908000       0.43678000       0.71246000
    10  C          0.15092000       0.56322000       0.28754000
    11  C          0.88309000       0.59908000       0.72336000
    12  C          0.11691000       0.40092000       0.27664000
    13  C          0.94278000       0.62258000       0.83316000
    14  C          0.05722000       0.37742000       0.16684000
    15  H          0.96562700       0.73365900       0.83589000
    16  H          0.03437300       0.26634100       0.16411000
    17  C          0.96988000       0.48668000       0.93946000
    18  C          0.03012000       0.51332000       0.06054000
    19  C          0.93969000       0.32288000       0.93006000
    20  C          0.06031000       0.67712000       0.06994000
    21  H          0.95855500       0.22717300       0.00050300
    22  H          0.04144500       0.77282700      -0.00050300
    23  C          0.88269000       0.30158000       0.81846000
    24  C          0.11731000       0.69842000       0.18154000
    25  O          0.70047000       0.59066000       0.38435000
    26  O          0.29953000       0.40934000       0.61565000
    27  C          0.64618000       0.56678000       0.28616000
    28  C          0.35382000       0.43322000       0.71384000
    29  C          0.61458000       0.39258000       0.27846000
    30  C          0.38542000       0.60742000       0.72154000
    31  C          0.56178000       0.37378000       0.16756000
    32  C          0.43822000       0.62622000       0.83244000
    33  H          0.54507900       0.26214700       0.16214000
    34  H          0.45492100       0.73785300       0.83786000
    35  C          0.52898000       0.51198000       0.05676000
    36  C          0.47102000       0.48802000       0.94324000
    37  C          0.56048000       0.68018000       0.06736000
    38  C          0.43952000       0.31982000       0.93264000
    39  H          0.54345400       0.77440000      -0.00497700
    40  H          0.45654600       0.22560000       0.00497700
    41  C          0.61259000       0.70758000       0.17536000
    42  C          0.38741000       0.29242000       0.82464000
    43  C          0.64349000       0.24519000       0.39476000
    44  C          0.35651000       0.75481000       0.60524000
    45  H          0.61151300       0.14006300       0.37807400
    46  H          0.38848700       0.85993700       0.62192600
    47  H          0.56989800       0.26033300       0.48274100
    48  H          0.43010200       0.73966700       0.51725900
    49  H          0.76752900       0.23941900       0.39875700
    50  H          0.23247100       0.76058100       0.60124300
    51  C          0.63719000       0.88408000       0.19116000
    52  C          0.36281000       0.11592000       0.80884000
    53  H          0.54737800       0.90573500       0.26984700
    54  H          0.45262200       0.09426500       0.73015300
    55  H          0.62540400       0.96815000       0.10640600
    56  H          0.37459600       0.03185000       0.89359400
    57  H          0.75432000       0.89150200       0.20721400
    58  H          0.24568000       0.10849800       0.79278600
