data_REQGED
_symmetry_space_group_name_H-M    'P1'
_symmetry_Int_Tables_number       1
loop_
_symmetry_equiv_pos_site_id
_symmetry_equiv_pos_as_xyz
1 x,y,z
_cell_length_a                   7.71266
_cell_length_b                   8.79277
_cell_length_c                   10.31908
_cell_angle_alpha                97.9894
_cell_angle_beta                 102.7635
_cell_angle_gamma                115.5735
loop_
_atom_site_label
_atom_site_type_symbol
_atom_site_fract_x
_atom_site_fract_y
_atom_site_fract_z
     1  Cl         0.61888140       0.08216110       0.18734100
     2  Cl         0.38111860       0.91783890       0.81265900
     3  Cl         0.00178130       0.77720110       0.41220900
     4  Cl        -0.00178130       0.22279890       0.58779100
     5  O          0.72824000       0.39454000       0.38713000
     6  O          0.27176000       0.60546000       0.61287000
     7  H          0.77307300       0.48429000       0.44841100
     8  H          0.22692700       0.51571000       0.55158900
     9  C          0.81225000       0.43195000       0.28704000
    10  C          0.18775000       0.56805000       0.71296000
    11  C          0.76775000       0.29245000       0.17884000
    12  C          0.23225000       0.70755000       0.82116000
    13  C          0.83955000       0.31725000       0.06774000
    14  C          0.16045000       0.68275000       0.93226000
    15  H          0.80573100       0.22079700      -0.00233700
    16  H          0.19426900       0.77920300       0.00233700
    17  C          0.96215000       0.48555000       0.05974000
    18  C          0.03785000       0.51445000       0.94026000
    19  C          0.01275000       0.62685000       0.16914000
    20  C         -0.01275000       0.37315000       0.83086000
    21  H          0.09714100       0.74002300       0.16756700
    22  H          0.90285900       0.25997700       0.83243300
    23  C          0.93845000       0.59995000       0.27984000
    24  C          0.06155000       0.40005000       0.72016000
    25  O          0.75894000       0.59824000       0.61773000
    26  O          0.24106000       0.40176000       0.38227000
    27  C          0.68435000       0.56845000       0.71404000
    28  C          0.31565000       0.43155000       0.28596000
    29  C          0.73035000       0.71615000       0.82544000
    30  C          0.26965000       0.28385000       0.17456000
    31  C          0.65895000       0.68745000       0.93324000
    32  C          0.34105000       0.31255000       0.06676000
    33  H          0.69130800       0.78305900       0.00353900
    34  H          0.30869200       0.21694100      -0.00353900
    35  C          0.53435000       0.51375000       0.94314000
    36  C          0.46565000       0.48625000       0.05686000
    37  C          0.48345000       0.37105000       0.82964000
    38  C          0.51655000       0.62895000       0.17036000
    39  H          0.39853600       0.25796800       0.83138000
    40  H          0.60146400       0.74203200       0.16862000
    41  C          0.55315000       0.39265000       0.71894000
    42  C          0.44685000       0.60735000       0.28106000
    43  C          0.85925000       0.90364000       0.81073000
    44  C          0.14075000       0.09636000       0.18927000
    45  H         -0.01163600       0.91819400       0.80639100
    46  H          0.01163600       0.08180600       0.19360900
    47  H          0.87880900      -0.01048100       0.88882500
    48  H          0.12119100       0.01048100       0.11117500
    49  H          0.78954100       0.91811400       0.72790000
    50  H          0.21045900       0.08188600       0.27210000
    51  C          0.49444000       0.23514000       0.59613000
    52  C          0.50556000       0.76486000       0.40387000
    53  H          0.42087300       0.24579500       0.51291900
    54  H          0.57912700       0.75420500       0.48708100
    55  H          0.41133500       0.12752800       0.61454200
    56  H          0.58866500       0.87247200       0.38545800
    57  H          0.61510300       0.23526000       0.58557200
    58  H          0.38489700       0.76474000       0.41442800
