data_RESGAY
_symmetry_space_group_name_H-M    'P1'
_symmetry_Int_Tables_number       1
loop_
_symmetry_equiv_pos_site_id
_symmetry_equiv_pos_as_xyz
1 x,y,z
_cell_length_a                   4.86721
_cell_length_b                   12.7633
_cell_length_c                   14.3743
_cell_angle_alpha                90.0
_cell_angle_beta                 96.203
_cell_angle_gamma                90.0
loop_
_atom_site_label
_atom_site_type_symbol
_atom_site_fract_x
_atom_site_fract_y
_atom_site_fract_z
     1  C          0.12153000       0.08935120       0.35623120
     2  C          0.37847000       0.58935120       0.14376880
     3  C          0.87847000       0.91064880       0.64376880
     4  C          0.62153000       0.41064880       0.85623120
     5  C          0.04634000       0.12758130       0.44050120
     6  C          0.45366000       0.62758130       0.05949880
     7  C          0.95366000       0.87241870       0.55949880
     8  C          0.54634000       0.37241870       0.94050120
     9  H          0.13120000       0.10070000       0.49820000
    10  H          0.36880000       0.60070000       0.00180000
    11  H          0.86880000       0.89930000       0.50180000
    12  H          0.63120000       0.39930000      -0.00180000
    13  C          0.84797000       0.20456130       0.43983110
    14  C          0.65203000       0.70456130       0.06016890
    15  C          0.15203000       0.79543870       0.56016890
    16  C          0.34797000       0.29543870       0.93983110
    17  H          0.79670000       0.22880000       0.49800000
    18  H          0.70330000       0.72880000       0.00200000
    19  H          0.20330000       0.77120000       0.50200000
    20  H          0.29670000       0.27120000      -0.00200000
    21  N          0.72407000       0.24681110       0.36093900
    22  N          0.77593000       0.74681110       0.13906100
    23  N          0.27593000       0.75318890       0.63906100
    24  N          0.22407000       0.25318890       0.86093900
    25  C          0.79767000       0.21237130       0.27868110
    26  C          0.70233000       0.71237130       0.22131890
    27  C          0.20233000       0.78762870       0.72131890
    28  C          0.29767000       0.28762870       0.77868110
    29  C         -0.00853000       0.13345130       0.27456110
    30  C          0.50853000       0.63345130       0.22543890
    31  C          0.00853000       0.86654870       0.72543890
    32  C          0.49147000       0.36654870       0.77456110
    33  H          0.03590000       0.10930000       0.21550000
    34  H          0.46410000       0.60930000       0.28450000
    35  H          0.96410000       0.89070000       0.78450000
    36  H          0.53590000       0.39070000       0.71550000
    37  C          0.33534000       0.00472140       0.35347130
    38  C          0.16466000       0.50472140       0.14652870
    39  C          0.66466000      -0.00472140       0.64652870
    40  C          0.83534000       0.49527860       0.85347130
    41  H          0.31760000       0.95460000       0.40410000
    42  H          0.18240000       0.45460000       0.09590000
    43  H          0.68240000       0.04540000       0.59590000
    44  H          0.81760000       0.54540000       0.90410000
    45  H          0.52020000       0.03600000       0.36140000
    46  H         -0.02020000       0.53600000       0.13860000
    47  H          0.47980000       0.96400000       0.63860000
    48  H          0.02020000       0.46400000       0.86140000
    49  H          0.30740000       0.96840000       0.29310000
    50  H          0.19260000       0.46840000       0.20690000
    51  H          0.69260000       0.03160000       0.70690000
    52  H          0.80740000       0.53160000       0.79310000
    53  C          0.65946000       0.26489150       0.19303120
    54  C          0.84054000       0.76489150       0.30696880
    55  C          0.34054000       0.73510850       0.80696880
    56  C          0.15946000       0.23510850       0.69303120
    57  H          0.70010000       0.34010000       0.19590000
    58  H          0.79990000       0.84010000       0.30410000
    59  H          0.29990000       0.65990000       0.80410000
    60  H          0.20010000       0.15990000       0.69590000
    61  H          0.45930000       0.25420000       0.18980000
    62  H          0.04070000       0.75420000       0.31020000
    63  H          0.54070000       0.74580000       0.81020000
    64  H          0.95930000       0.24580000       0.68980000
    65  H          0.72840000       0.23480000       0.13730000
    66  H          0.77160000       0.73480000       0.36270000
    67  H          0.27160000       0.76520000       0.86270000
    68  H          0.22840000       0.26520000       0.63730000
    69  C          0.22973000       0.91134120       0.05006110
    70  C          0.27027000       0.41134120       0.44993890
    71  C          0.77027000       0.08865880       0.94993890
    72  C          0.72973000       0.58865880       0.55006110
    73  C          0.46223000       0.98855130       0.04882110
    74  C          0.03777000       0.48855130       0.45117890
    75  C          0.53777000       0.01144870       0.95117890
    76  C          0.96223000       0.51144870       0.54882110
    77  H          0.62700000       0.96080000       0.08740000
    78  H          0.87300000       0.46080000       0.41260000
    79  H          0.37300000       0.03920000       0.91260000
    80  H          0.12700000       0.53920000       0.58740000
    81  H          0.40890000       0.05490000       0.07770000
    82  H          0.09110000       0.55490000       0.42230000
    83  H          0.59110000       0.94510000       0.92230000
    84  H          0.90890000       0.44510000       0.57770000
    85  O          0.17613000       0.88745100       0.13584800
    86  O          0.32387000       0.38745100       0.36415200
    87  O          0.82387000       0.11254900       0.86415200
    88  O          0.67613000       0.61254900       0.63584800
    89  H          0.02250000       0.83491700       0.13261500
    90  H          0.47750000       0.33491700       0.36738500
    91  H         -0.02250000       0.16508300       0.86738500
    92  H          0.52250000       0.66508300       0.63261500
    93  O          0.10232000       0.87429900       0.98025800
    94  O          0.39768000       0.37429900       0.51974200
    95  O          0.89768000       0.12570100       0.01974200
    96  O          0.60232000       0.62570100       0.48025800
