data_RESHED
_symmetry_space_group_name_H-M    'P1'
_symmetry_Int_Tables_number       1
loop_
_symmetry_equiv_pos_site_id
_symmetry_equiv_pos_as_xyz
1 x,y,z
_cell_length_a                   8.234516
_cell_length_b                   16.2993
_cell_length_c                   6.968114
_cell_angle_alpha                90.0
_cell_angle_beta                 108.173
_cell_angle_gamma                90.0
loop_
_atom_site_label
_atom_site_type_symbol
_atom_site_fract_x
_atom_site_fract_y
_atom_site_fract_z
     1  N         -0.01823890       0.16476500       0.56672120
     2  N          0.01823890       0.66476500       0.93327880
     3  N          0.01823890       0.83523500       0.43327880
     4  N         -0.01823890       0.33523500       0.06672120
     5  C          0.81897130       0.14246600       0.53362140
     6  C          0.18102870       0.64246600       0.96637860
     7  C          0.18102870       0.85753400       0.46637860
     8  C          0.81897130       0.35753400       0.03362140
     9  H          0.79160000       0.08570000       0.52650000
    10  H          0.20840000       0.58570000       0.97350000
    11  H          0.20840000       0.91430000       0.47350000
    12  H          0.79160000       0.41430000       0.02650000
    13  C          0.68867130       0.19931600       0.50936150
    14  C          0.31132870       0.69931600      -0.00936150
    15  C          0.31132870       0.80068400       0.49063850
    16  C          0.68867130       0.30068400       0.00936150
    17  C          0.73373130       0.28194600       0.51998150
    18  C          0.26626870       0.78194600      -0.01998150
    19  C          0.26626870       0.71805400       0.48001850
    20  C          0.73373130       0.21805400       0.01998150
    21  H          0.64780000       0.32250000       0.50420000
    22  H          0.35220000       0.82250000      -0.00420000
    23  H          0.35220000       0.67750000       0.49580000
    24  H          0.64780000       0.17750000       0.00420000
    25  C          0.90219130       0.30606600       0.55325150
    26  C          0.09780870       0.80606600       0.94674850
    27  C          0.09780870       0.69393400       0.44674850
    28  C          0.90219130       0.19393400       0.05325150
    29  C          0.02302130       0.24432600       0.57623150
    30  C          0.97697870       0.74432600       0.92376850
    31  C          0.97697870       0.75567400       0.42376850
    32  C          0.02302130       0.25567400       0.07623150
    33  H          0.13920000       0.25920000       0.59950000
    34  H          0.86080000       0.75920000       0.90050000
    35  H          0.86080000       0.74080000       0.40050000
    36  H          0.13920000       0.24080000       0.09950000
    37  C          0.50702150       0.17226800       0.47402000
    38  C          0.49297850       0.67226800       0.02598000
    39  C          0.49297850       0.82773200       0.52598000
    40  C          0.50702150       0.32773200       0.97402000
    41  H          0.42910000       0.21660000       0.40820000
    42  H          0.57090000       0.71660000       0.09180000
    43  H          0.57090000       0.78340000       0.59180000
    44  H          0.42910000       0.28340000       0.90820000
    45  H          0.49010000       0.15900000       0.60360000
    46  H          0.50990000       0.65900000       0.89640000
    47  H          0.50990000       0.84100000       0.39640000
    48  H          0.49010000       0.34100000       0.10360000
    49  H          0.48350000       0.12360000       0.38710000
    50  H          0.51650000       0.62360000       0.11290000
    51  H          0.51650000       0.87640000       0.61290000
    52  H          0.48350000       0.37640000       0.88710000
    53  C          0.95502170       0.39478700       0.56710190
    54  C          0.04497830       0.89478700       0.93289810
    55  C          0.04497830       0.60521300       0.43289810
    56  C          0.95502170       0.10521300       0.06710190
    57  H          0.06800000       0.39940000       0.54890000
    58  H          0.93200000       0.89940000       0.95110000
    59  H          0.93200000       0.60060000       0.45110000
    60  H          0.06800000       0.10060000       0.04890000
    61  H          0.95990000       0.41650000       0.69990000
    62  H          0.04010000       0.91650000       0.80010000
    63  H          0.04010000       0.58350000       0.30010000
    64  H          0.95990000       0.08350000       0.19990000
    65  H          0.87160000       0.42620000       0.46150000
    66  H          0.12840000       0.92620000       0.03850000
    67  H          0.12840000       0.57380000       0.53850000
    68  H          0.87160000       0.07380000       0.96150000
    69  C          0.32232120       0.06932600       0.83058150
    70  C          0.67767880       0.56932600       0.66941850
    71  C          0.67767880       0.93067400       0.16941850
    72  C          0.32232120       0.43067400       0.33058150
    73  C          0.44500120       0.00033600       0.90820160
    74  C          0.55499880       0.50033600       0.59179840
    75  C          0.55499880      -0.00033600       0.09179840
    76  C          0.44500120       0.49966400       0.40820160
    77  H          0.44350000       0.95510000       0.82150000
    78  H          0.55650000       0.45510000       0.67850000
    79  H          0.55650000       0.04490000       0.17850000
    80  H          0.44350000       0.54490000       0.32150000
    81  O          0.33018100       0.13275500       0.92618130
    82  O          0.66981900       0.63275500       0.57381870
    83  O          0.66981900       0.86724500       0.07381870
    84  O          0.33018100       0.36724500       0.42618130
    85  O          0.21059100       0.05404500       0.65598120
    86  O          0.78940900       0.55404500       0.84401880
    87  O          0.78940900       0.94595500       0.34401880
    88  O          0.21059100       0.44595500       0.15598120
    89  H          0.11130000       0.10341300       0.61330000
    90  H          0.88870000       0.60341300       0.88670000
    91  H          0.88870000       0.89658700       0.38670000
    92  H          0.11130000       0.39658700       0.11330000
