data_RETNAJ
_symmetry_space_group_name_H-M    'P1'
_symmetry_Int_Tables_number       1
loop_
_symmetry_equiv_pos_site_id
_symmetry_equiv_pos_as_xyz
1 x,y,z
_cell_length_a                   9.96945
_cell_length_b                   10.22937
_cell_length_c                   13.88689
_cell_angle_alpha                93.2685
_cell_angle_beta                 101.9275
_cell_angle_gamma                113.0076
loop_
_atom_site_label
_atom_site_type_symbol
_atom_site_fract_x
_atom_site_fract_y
_atom_site_fract_z
     1  S          0.79265300       0.66103700       0.64483600
     2  S          0.20734700       0.33896300       0.35516400
     3  F          0.08805160       0.85932150       0.87507110
     4  F          0.91194840       0.14067850       0.12492890
     5  F          0.97498840       0.63038150       0.83775110
     6  F          0.02501160       0.36961850       0.16224890
     7  F          0.21442160       0.72987150       0.89200100
     8  F          0.78557840       0.27012850       0.10799900
     9  O          0.42745170      -0.00965840       0.61634110
    10  O          0.57254830       0.00965840       0.38365890
    11  O          0.21337180       0.81141170       0.54479120
    12  O          0.78662820       0.18858830       0.45520880
    13  N          0.04662000       0.39392000       0.59821160
    14  N          0.95338000       0.60608000       0.40178840
    15  H         -0.00840000       0.32040000       0.55630000
    16  H          0.00840000       0.67960000       0.44370000
    17  C          0.59873000       0.19372000       0.86815180
    18  C          0.40127000       0.80628000       0.13184820
    19  H          0.57860000       0.19610000       0.93060000
    20  H          0.42140000       0.80390000       0.06940000
    21  C          0.73043000       0.29263000       0.85362000
    22  C          0.26957000       0.70737000       0.14638000
    23  H          0.79900000       0.36260000       0.90610000
    24  H          0.20100000       0.63740000       0.09390000
    25  C          0.76203000       0.28883000       0.76122000
    26  C          0.23797000       0.71117000       0.23878000
    27  H          0.85250000       0.35570000       0.75290000
    28  H          0.14750000       0.64430000       0.24710000
    29  C          0.66193000       0.18782000       0.68132180
    30  C          0.33807000       0.81218000       0.31867820
    31  H          0.68310000       0.18570000       0.61930000
    32  H          0.31690000       0.81430000       0.38070000
    33  C          0.52832000       0.08932000       0.69675160
    34  C          0.47168000       0.91068000       0.30324840
    35  C          0.49402000       0.08872000       0.78840160
    36  C          0.50598000       0.91128000       0.21159840
    37  C          0.35622000       0.97852000       0.79816160
    38  C          0.64378000       0.02148000       0.20183840
    39  H          0.33320000       0.97630000       0.85980000
    40  H          0.66680000       0.02370000       0.14020000
    41  C          0.25932000       0.87802000       0.72062160
    42  C          0.74068000       0.12198000       0.27937840
    43  C          0.29222000       0.88592000       0.62224160
    44  C          0.70778000       0.11408000       0.37775840
    45  C          0.38513000       0.63163000       0.77074180
    46  C          0.61487000       0.36837000       0.22925820
    47  H          0.42060000       0.72150000       0.80900000
    48  H          0.57940000       0.27850000       0.19100000
    49  C          0.47523000       0.55853000       0.77542000
    50  C          0.52477000       0.44147000       0.22458000
    51  H          0.57180000       0.59980000       0.81720000
    52  H          0.42820000       0.40020000       0.18280000
    53  C          0.42543000       0.42323000       0.71852000
    54  C          0.57457000       0.57677000       0.28148000
    55  H          0.48940000       0.37650000       0.72280000
    56  H          0.51060000       0.62350000       0.27720000
    57  C          0.28263000       0.35833000       0.65642000
    58  C          0.71737000       0.64167000       0.34358000
    59  H          0.24870000       0.26820000       0.61880000
    60  H          0.75130000       0.73180000       0.38120000
    61  C          0.19083000       0.43222000       0.65193170
    62  C          0.80917000       0.56778000       0.34806830
    63  C          0.23862000       0.57022000       0.70800160
    64  C          0.76138000       0.42978000       0.29199840
    65  C          0.11472000       0.61102000       0.68389150
    66  C          0.88528000       0.38898000       0.31610850
    67  C          0.00192000       0.50042000       0.61629160
    68  C         -0.00192000       0.49958000       0.38370840
    69  H          0.90830000       0.49850000       0.58700000
    70  H          0.09170000       0.50150000       0.41300000
    71  C          0.11122000       0.75222000       0.72390160
    72  C          0.88878000       0.24778000       0.27609840
    73  C          0.09822000       0.74372000       0.83273170
    74  C          0.90178000       0.25628000       0.16726830
    75  C         -0.02042000       0.78262000       0.66870170
    76  C          0.02042000       0.21738000       0.33129830
    77  C         -0.01533000       0.90763000       0.63862000
    78  C          0.01533000       0.09237000       0.36138000
    79  H          0.07430000      -0.01170000       0.64600000
    80  H          0.92570000       0.01170000       0.35400000
    81  C          0.84197000       0.90503000       0.59482000
    82  C          0.15803000       0.09497000       0.40518000
    83  H          0.82940000      -0.01680000       0.57030000
    84  H          0.17060000       0.01680000       0.42970000
    85  C          0.72657000       0.77903000       0.59202000
    86  C          0.27343000       0.22097000       0.40798000
    87  C          0.56027000       0.73394000       0.55062000
    88  C          0.43973000       0.26606000       0.44938000
    89  H          0.52320000       0.65580000       0.49670000
    90  H          0.47680000       0.34420000       0.50330000
    91  H          0.54300000       0.81360000       0.52660000
    92  H          0.45700000       0.18640000       0.47340000
    93  H          0.50880000       0.70370000       0.60200000
    94  H          0.49120000       0.29630000       0.39800000
    95  O          0.37192000       0.10943000       0.03134170
    96  O          0.62808000       0.89057000       0.96865830
    97  O          0.19343000       0.19023000       0.01588190
    98  O          0.80657000       0.80977000       0.98411810
    99  C          0.26643000       0.11583000       0.05592000
   100  C          0.73357000       0.88417000       0.94408000
   101  C          0.20174000       0.04354000       0.13523000
   102  C          0.79826000       0.95646000       0.86477000
   103  H          0.26150000      -0.00400000       0.16640000
   104  H          0.73850000       0.00400000       0.83360000
   105  H          0.10060000       0.97390000       0.10660000
   106  H          0.89940000       0.02610000       0.89340000
   107  H          0.20110000       0.11350000       0.18390000
   108  H          0.79890000       0.88650000       0.81610000
   109  C          0.24535000       0.26895000       0.93807000
   110  C          0.75465000       0.73105000       0.06193000
   111  H          0.35380000       0.32160000       0.95800000
   112  H          0.64620000       0.67840000       0.04200000
   113  H          0.21930000       0.20290000       0.87750000
   114  H          0.78070000       0.79710000       0.12250000
   115  C          0.17607000       0.36556000       0.92125000
   116  C          0.82393000       0.63444000       0.07875000
   117  H          0.19720000       0.40780000       0.86320000
   118  H          0.80280000       0.59220000       0.13680000
   119  H          0.21470000       0.43970000       0.97790000
   120  H          0.78530000       0.56030000       0.02210000
   121  H          0.06920000       0.31460000       0.91130000
   122  H          0.93080000       0.68540000       0.08870000
