data_REWZIC
_symmetry_space_group_name_H-M    'P1'
_symmetry_Int_Tables_number       1
loop_
_symmetry_equiv_pos_site_id
_symmetry_equiv_pos_as_xyz
1 x,y,z
_cell_length_a                   9.7242
_cell_length_b                   11.8623
_cell_length_c                   15.2532
_cell_angle_alpha                90.0
_cell_angle_beta                 106.311
_cell_angle_gamma                90.0
loop_
_atom_site_label
_atom_site_type_symbol
_atom_site_fract_x
_atom_site_fract_y
_atom_site_fract_z
     1  C          0.26554000       0.95357000       0.28063000
     2  C          0.73446000       0.45357000       0.71937000
     3  C          0.36664000       0.03993000       0.25982000
     4  C          0.63336000       0.53993000       0.74018000
     5  S          0.47131000       0.13261000       0.34701000
     6  S          0.52869000       0.63261000       0.65299000
     7  O          0.37253000       0.20192000       0.38562000
     8  O          0.62747000       0.70192000       0.61438000
     9  C          0.55714000       0.03123000       0.43112000
    10  C          0.44286000       0.53123000       0.56888000
    11  C          0.65234000       0.94747000       0.40183000
    12  C          0.34766000       0.44747000       0.59817000
    13  C          0.59444000       0.82647000       0.39193000
    14  C          0.40556000       0.32647000       0.60807000
    15  O          0.46743000       0.81418000       0.31822000
    16  O          0.53257000       0.31418000       0.68178000
    17  C          0.33664000       0.85047000       0.33763000
    18  C          0.66336000       0.35047000       0.66237000
    19  C          0.21984000       0.75796000       0.30923000
    20  C          0.78016000       0.25796000       0.69077000
    21  C          0.09284000       0.82036000       0.24653000
    22  C          0.90716000       0.32036000       0.75347000
    23  C          0.03655000       0.90306000       0.30493000
    24  C          0.96345000       0.40306000       0.69507000
    25  C          0.15514000      -0.00364000       0.32893000
    26  C          0.84486000       0.49636000       0.67107000
    27  C          0.16565000       0.89816000       0.19253000
    28  C          0.83435000       0.39816000       0.80747000
    29  C          0.06195000       0.98135000       0.12913000
    30  C          0.93805000       0.48135000       0.87087000
    31  C          0.24395000       0.83566000       0.13303000
    32  C          0.75605000       0.33566000       0.86697000
    33  C          0.70534000       0.74677000       0.37293000
    34  C          0.29466000       0.24677000       0.62707000
    35  C          0.71034000       0.72627000       0.28493000
    36  C          0.28966000       0.22627000       0.71507000
    37  C          0.80985000       0.65186000       0.26883000
    38  C          0.19015000       0.15186000       0.73117000
    39  C          0.90174000       0.59836000       0.34144000
    40  C          0.09826000       0.09836000       0.65856000
    41  N          0.00415000       0.51516000       0.32385000
    42  N         -0.00415000       0.01516000       0.67615000
    43  O          0.02154000       0.51226000       0.24784000
    44  O          0.97846000       0.01226000       0.75216000
    45  O          0.06494000       0.45166000       0.38713000
    46  O          0.93506000       0.95166000       0.61287000
    47  C          0.90214000       0.61896000       0.42944000
    48  C          0.09786000       0.11896000       0.57056000
    49  C          0.80185000       0.69336000       0.44533000
    50  C          0.19815000       0.19336000       0.55467000
    51  C          0.53964000       0.04253000       0.51473000
    52  C          0.46036000       0.54253000       0.48527000
    53  C          0.60854000       0.97306000       0.59213000
    54  C          0.39146000       0.47306000       0.40787000
    55  N          0.58174000      -0.00633000       0.66852000
    56  N          0.41826000       0.49367000       0.33148000
    57  N          0.65004000       0.92597000       0.74052000
    58  N          0.34996000       0.42597000       0.25948000
    59  C          0.63434000       0.94777000       0.82443000
    60  C          0.36566000       0.44777000       0.17557000
    61  C          0.70025000       0.88736000       0.90453000
    62  C          0.29975000       0.38736000       0.09547000
    63  N          0.79825000       0.79467000       0.90433000
    64  N          0.20175000       0.29467000       0.09567000
    65  O          0.82554000       0.77027000       0.83152000
    66  O          0.17446000       0.27027000       0.16848000
    67  O          0.85165000       0.74467000       0.97572000
    68  O          0.14835000       0.24467000       0.02428000
    69  C          0.67685000       0.91346000       0.98743000
    70  C          0.32315000       0.41346000       0.01257000
    71  C          0.58905000       0.00094000      -0.00787000
    72  C          0.41095000       0.50094000       0.00787000
    73  N          0.56635000       0.02925000       0.08043000
    74  N          0.43365000       0.52925000       0.91957000
    75  O          0.62614000       0.97196000       0.14772000
    76  O          0.37386000       0.47196000       0.85228000
    77  O          0.48795000       0.10914000       0.08313000
    78  O          0.51205000       0.60914000       0.91687000
    79  C          0.52535000       0.06535000       0.91643000
    80  C          0.47465000       0.56535000       0.08357000
    81  C          0.54835000       0.03964000       0.83543000
    82  C          0.45165000       0.53964000       0.16457000
    83  H          0.31014000       0.08743000       0.21112000
    84  H          0.68986000       0.58743000       0.78888000
    85  H          0.43354000      -0.00093000       0.23482000
    86  H          0.56646000       0.49907000       0.76518000
    87  H          0.74594000       0.94797000       0.44623000
    88  H          0.25406000       0.44797000       0.55377000
    89  H          0.66474000       0.97147000       0.34373000
    90  H          0.33526000       0.47147000       0.65627000
    91  H          0.57424000       0.80397000       0.44893000
    92  H          0.42576000       0.30397000       0.55107000
    93  H          0.35574000       0.86707000       0.40293000
    94  H          0.64426000       0.36707000       0.59707000
    95  H          0.25124000       0.69706000       0.27703000
    96  H          0.74876000       0.19706000       0.72297000
    97  H          0.19574000       0.72756000       0.36203000
    98  H          0.80426000       0.22756000       0.63797000
    99  H          0.01934000       0.77096000       0.20833000
   100  H          0.98066000       0.27096000       0.79167000
   101  H          0.02605000       0.86686000       0.35963000
   102  H          0.97395000       0.36686000       0.64037000
   103  H          0.94485000       0.93436000       0.27093000
   104  H          0.05515000       0.43436000       0.72907000
   105  H          0.11684000       0.06934000       0.30533000
   106  H          0.88316000       0.56934000       0.69467000
   107  H          0.19754000       0.00204000       0.39433000
   108  H          0.80246000       0.50204000       0.60567000
   109  H          0.01015000       0.02275000       0.16373000
   110  H         -0.01015000       0.52275000       0.83627000
   111  H         -0.00445000       0.94035000       0.08123000
   112  H          0.00445000       0.44035000       0.91877000
   113  H          0.11545000       0.03305000       0.10293000
   114  H          0.88455000       0.53305000       0.89707000
   115  H          0.28665000       0.88926000       0.10143000
   116  H          0.71335000       0.38926000       0.89857000
   117  H          0.17705000       0.78956000       0.08943000
   118  H          0.82295000       0.28956000       0.91057000
   119  H          0.31745000       0.78876000       0.17093000
   120  H          0.68255000       0.28876000       0.82907000
   121  H          0.64654000       0.76267000       0.23623000
   122  H          0.35346000       0.26267000       0.76377000
   123  H          0.81435000       0.63836000       0.20963000
   124  H          0.18565000       0.13836000       0.79037000
   125  H          0.96834000       0.58376000       0.47784000
   126  H          0.03166000       0.08376000       0.52216000
   127  H          0.79945000       0.70746000       0.50483000
   128  H          0.20055000       0.20746000       0.49517000
   129  H          0.47884000       0.09923000       0.52353000
   130  H          0.52116000       0.59923000       0.47647000
   131  H          0.67044000       0.91526000       0.58703000
   132  H          0.32956000       0.41526000       0.41297000
   133  H          0.70204000       0.87047000       0.73252000
   134  H          0.29796000       0.37047000       0.26748000
   135  H          0.72075000       0.87166000       0.03933000
   136  H          0.27925000       0.37166000       0.96067000
   137  H          0.46705000       0.12585000       0.92113000
   138  H          0.53295000       0.62585000       0.07887000
   139  H          0.50595000       0.08434000       0.78493000
   140  H          0.49405000       0.58434000       0.21507000
   141  C          0.80806000       0.25845000       0.35804000
   142  C          0.19194000       0.75845000       0.64196000
   143  O          0.86344000       0.16774000       0.37323000
   144  O          0.13656000       0.66774000       0.62677000
   145  C          0.76126000       0.32495000       0.42384000
   146  C          0.23874000       0.82495000       0.57616000
   147  O          0.78364000       0.30963000       0.27722000
   148  O          0.21636000       0.80963000       0.72278000
   149  C          0.82867000       0.24846000       0.20874000
   150  C          0.17133000       0.74846000       0.79126000
   151  C          0.77499000       0.30527000       0.12254000
   152  C          0.22501000       0.80527000       0.87746000
   153  H          0.72026000       0.39435000       0.39604000
   154  H          0.27974000       0.89435000       0.60396000
   155  H          0.84166000       0.34095000       0.47544000
   156  H          0.15834000       0.84095000       0.52456000
   157  H          0.69056000       0.28355000       0.44374000
   158  H          0.30944000       0.78355000       0.55626000
   159  H          0.93247000       0.24486000       0.22514000
   160  H          0.06753000       0.74486000       0.77486000
   161  H          0.79177000       0.17206000       0.20424000
   162  H          0.20823000       0.67206000       0.79576000
   163  H          0.80439000       0.26517000       0.07624000
   164  H          0.19561000       0.76517000       0.92376000
   165  H          0.81239000       0.38067000       0.12744000
   166  H          0.18761000       0.88067000       0.87256000
   167  H          0.67219000       0.30797000       0.10654000
   168  H          0.32781000       0.80797000       0.89346000
