data_REXNOZ
_symmetry_space_group_name_H-M    'P1'
_symmetry_Int_Tables_number       1
loop_
_symmetry_equiv_pos_site_id
_symmetry_equiv_pos_as_xyz
1 x,y,z
_cell_length_a                   8.7815
_cell_length_b                   10.0667
_cell_length_c                   10.2896
_cell_angle_alpha                99.2731
_cell_angle_beta                 107.4529
_cell_angle_gamma                110.2889
loop_
_atom_site_label
_atom_site_type_symbol
_atom_site_fract_x
_atom_site_fract_y
_atom_site_fract_z
     1  F          0.32003000       0.64892000       0.37925190
     2  F          0.67997000       0.35108000       0.62074810
     3  F          0.58073000       0.51442000       0.77822180
     4  F          0.41927000       0.48558000       0.22177820
     5  O          0.23153000       0.64982000       0.62622000
     6  O          0.76847000       0.35018000       0.37378000
     7  H          0.20950000       0.70340000       0.67970000
     8  H          0.79050000       0.29660000       0.32030000
     9  C          0.44814000       0.58743000       0.58393000
    10  C          0.55186000       0.41257000       0.41607000
    11  C          0.54254000       0.51173000       0.64053000
    12  C          0.45746000       0.48827000       0.35947000
    13  O          0.50653000       0.77793000       0.78443000
    14  O          0.49347000       0.22207000       0.21557000
    15  C          0.39724000       0.68314000       0.67633000
    16  C          0.60276000       0.31686000       0.32367000
    17  C          0.40684000       0.57383000       0.44083000
    18  C          0.59316000       0.42617000       0.55917000
    19  N          0.90586000       0.59133000       0.22013000
    20  N          0.09414000       0.40867000       0.77987000
    21  H          0.95680000       0.53270000       0.21430000
    22  H          0.04320000       0.46730000       0.78570000
    23  C          0.73596000       0.77623000       0.23843000
    24  C          0.26404000       0.22377000       0.76157000
    25  N          0.64997000       0.86183000       0.24523000
    26  N          0.35003000       0.13817000       0.75477000
    27  C          0.84706000       0.76043000       0.36163000
    28  C          0.15294000       0.23957000       0.63837000
    29  H          0.86450000       0.81320000       0.45170000
    30  H          0.13550000       0.18680000       0.54830000
    31  C          0.80526000       0.60494000       0.10093000
    32  C          0.19474000       0.39506000       0.89907000
    33  H          0.79350000       0.55190000       0.01290000
    34  H          0.20650000       0.44810000      -0.01290000
    35  C          0.72016000       0.69394000       0.10543000
    36  C          0.27984000       0.30606000       0.89457000
    37  H          0.65100000       0.70120000       0.02100000
    38  H          0.34900000       0.29880000       0.97900000
    39  C          0.66425000       0.94604000       0.38164000
    40  C          0.33575000       0.05396000       0.61836000
    41  H          0.59370000       0.00070000       0.36450000
    42  H          0.40630000      -0.00070000       0.63550000
    43  H          0.78480000       0.01350000       0.43680000
    44  H          0.21520000      -0.01350000       0.56320000
    45  H          0.62370000       0.87890000       0.43280000
    46  H          0.37630000       0.12110000       0.56720000
    47  C          0.92795000       0.66894000       0.34903000
    48  C          0.07205000       0.33106000       0.65097000
    49  H         -0.00000000       0.65960000       0.43090000
    50  H          0.00000000       0.34040000       0.56910000
    51  C          0.53585000       0.87424000       0.11644000
    52  C          0.46415000       0.12576000       0.88356000
    53  H          0.48590000       0.94040000       0.14200000
    54  H          0.51410000       0.05960000       0.85800000
    55  H          0.44330000       0.77810000       0.06040000
    56  H          0.55670000       0.22190000       0.93960000
    57  H          0.60320000       0.91210000       0.06180000
    58  H          0.39680000       0.08790000       0.93820000
    59  F          0.13133000       0.07982000       0.28901190
    60  F          0.86867000       0.92018000       0.71098810
    61  F          0.82497000       0.13822000       0.85378000
    62  F          0.17503000       0.86178000       0.14622000
    63  O          0.87126000       0.19783000       0.24253000
    64  O          0.12874000       0.80217000       0.75747000
    65  C         -0.02444000       0.11593000       0.07613000
    66  C          0.02444000       0.88407000       0.92387000
    67  O         -0.00624000       0.35943000       0.14023000
    68  O          0.00624000       0.64057000       0.85977000
    69  C          0.91336000       0.07203000       0.92927000
    70  C          0.08664000       0.92797000       0.07073000
    71  C          0.94546000       0.23824000       0.15923000
    72  C          0.05454000       0.76176000       0.84077000
    73  C          0.06364000       0.04163000       0.14483000
    74  C          0.93636000       0.95837000       0.85517000
