data_REXNEP
_symmetry_space_group_name_H-M    'P1'
_symmetry_Int_Tables_number       1
loop_
_symmetry_equiv_pos_site_id
_symmetry_equiv_pos_as_xyz
1 x,y,z
_cell_length_a                   8.3193
_cell_length_b                   10.1524
_cell_length_c                   10.6423
_cell_angle_alpha                87.5006
_cell_angle_beta                 73.9924
_cell_angle_gamma                69.0926
loop_
_atom_site_label
_atom_site_type_symbol
_atom_site_fract_x
_atom_site_fract_y
_atom_site_fract_z
     1  F          0.18708160       0.68893140       0.97416130
     2  F          0.81291840       0.31106860       0.02583870
     3  F          0.42514180       0.53008140       0.76668110
     4  F          0.57485820       0.46991860       0.23331890
     5  O          0.20542000       0.81421160       0.20374160
     6  O          0.79458000       0.18578840       0.79625840
     7  H          0.13460000       0.86320000       0.26910000
     8  H          0.86540000       0.13680000       0.73090000
     9  O          0.19053000       0.63664180       0.32980160
    10  O          0.80947000       0.36335820       0.67019840
    11  C          0.34302000       0.59862000      -0.01062810
    12  C          0.65698000       0.40138000       0.01062810
    13  C          0.37532000       0.58776190       0.11013180
    14  C          0.62468000       0.41223810       0.88986820
    15  C          0.46563000       0.51392000       0.88182180
    16  C          0.53437000       0.48608000       0.11817820
    17  C          0.24463000       0.68322000       0.22792000
    18  C          0.75537000       0.31678000       0.77208000
    19  F          0.15112150       0.08644150       0.00465150
    20  F          0.84887850       0.91355850      -0.00465150
    21  O          0.16752000       0.35173150       0.10758140
    22  O          0.83248000       0.64826850       0.89241860
    23  H          0.09720000       0.41750000       0.16000000
    24  H          0.90280000       0.58250000       0.84000000
    25  C          0.37482000       0.11997180       0.08096170
    26  C          0.62518000       0.88002820       0.91903830
    27  F          0.61172180       0.13762150       0.14932140
    28  F          0.38827820       0.86237850       0.85067860
    29  O          0.21393000       0.24461180       0.28627150
    30  O          0.78607000       0.75538820       0.71372850
    31  C          0.24013000       0.24924190       0.16851180
    32  C          0.75987000       0.75075810       0.83148820
    33  C          0.55363000       0.07092000       0.07561180
    34  C          0.44637000       0.92908000       0.92438820
    35  C          0.32412000       0.04602000       0.00341190
    36  C          0.67588000       0.95398000      -0.00341190
    37  N          0.07638000       0.02044190       0.63679160
    38  N          0.92362000       0.97955810       0.36320840
    39  N          0.89778000       0.54521170       0.25849160
    40  N          0.10222000       0.45478830       0.74150840
    41  C          0.33047000       0.97332000       0.45174190
    42  C          0.66953000       0.02668000       0.54825810
    43  H          0.39150000       0.00600000       0.37770000
    44  H          0.60850000      -0.00600000       0.62230000
    45  C          0.40178000       0.83520190       0.48421170
    46  C          0.59822000       0.16479810       0.51578830
    47  C          0.57738000       0.73552180       0.40596170
    48  C          0.42262000       0.26447820       0.59403830
    49  C          0.68427000       0.62592000       0.46317180
    50  C          0.31573000       0.37408000       0.53682820
    51  H          0.64860000       0.61600000       0.55280000
    52  H          0.35140000       0.38400000       0.44720000
    53  C          0.63927000       0.74812000       0.27277180
    54  C          0.36073000       0.25188000       0.72722820
    55  H          0.57280000       0.82160000       0.23170000
    56  H          0.42720000       0.17840000       0.76830000
    57  C          0.84307000       0.53222000       0.38672000
    58  C          0.15693000       0.46778000       0.61328000
    59  H          0.91360000       0.45850000       0.42520000
    60  H          0.08640000       0.54150000       0.57480000
    61  C          0.16797000       0.06272000       0.53002000
    62  C          0.83203000       0.93728000       0.46998000
    63  H          0.12120000       0.15530000       0.50720000
    64  H          0.87880000       0.84470000       0.49280000
    65  C          0.30227000       0.79222000       0.59392000
    66  C          0.69773000       0.20778000       0.40608000
    67  H          0.34300000       0.69930000       0.61750000
    68  H          0.65700000       0.30070000       0.38250000
    69  C          0.80067000       0.65092000       0.20132190
    70  C          0.19933000       0.34908000       0.79867810
    71  H          0.84190000       0.65940000       0.11190000
    72  H          0.15810000       0.34060000       0.88810000
    73  C          0.14237000       0.88812000       0.66802000
    74  C          0.85763000       0.11188000       0.33198000
    75  H          0.07840000       0.85850000       0.74270000
    76  H          0.92160000       0.14150000       0.25730000
