data_RIBNEX
_symmetry_space_group_name_H-M    'P1'
_symmetry_Int_Tables_number       1
loop_
_symmetry_equiv_pos_site_id
_symmetry_equiv_pos_as_xyz
1 x,y,z
_cell_length_a                   12.64322
_cell_length_b                   15.63134
_cell_length_c                   17.64433
_cell_angle_alpha                85.971511
_cell_angle_beta                 69.330016
_cell_angle_gamma                67.502911
loop_
_atom_site_label
_atom_site_type_symbol
_atom_site_fract_x
_atom_site_fract_y
_atom_site_fract_z
     1  C          0.89302000       0.43676130       0.43922110
     2  C          0.10698000       0.56323870       0.56077890
     3  C         -0.00176810       0.45338130       0.38616110
     4  C          0.00176810       0.54661870       0.61383890
     5  H         -0.00090000       0.49420000       0.34360000
     6  H          0.00090000       0.50580000       0.65640000
     7  C          0.09662000       0.40092130       0.40705110
     8  C          0.90338000       0.59907870       0.59294890
     9  H          0.17710000       0.40000000       0.38240000
    10  H          0.82290000       0.60000000       0.61760000
    11  C          0.05772000       0.34692140       0.47302110
    12  C          0.94228000       0.65307860       0.52697890
    13  C          0.11802000       0.26671130       0.50712110
    14  C          0.88198000       0.73328870       0.49287890
    15  C          0.04802000       0.21458140       0.55257110
    16  C          0.95198000       0.78541860       0.44742890
    17  C          0.08002000       0.11869140       0.56914100
    18  C          0.91998000       0.88130860       0.43085900
    19  H          0.16010000       0.07520000       0.56260000
    20  H          0.83990000       0.92480000       0.43740000
    21  C          0.97611190       0.10037140       0.59587100
    22  C          0.02388810       0.89962860       0.40412900
    23  H          0.97130000       0.04220000       0.61180000
    24  H          0.02870000       0.95780000       0.38820000
    25  C          0.87542000       0.18388140       0.59576100
    26  C          0.12458000       0.81611860       0.40423900
    27  C          0.75372000       0.20452130       0.59940100
    28  C          0.24628000       0.79547870       0.40059900
    29  C          0.69574180       0.28517130       0.56471100
    30  C          0.30425820       0.71482870       0.43528900
    31  C          0.59775180       0.31207130       0.53365110
    32  C          0.40224820       0.68792870       0.46634890
    33  H          0.53830000       0.28530000       0.54500000
    34  H          0.46170000       0.71470000       0.45500000
    35  C          0.60518180       0.38335130       0.48474110
    36  C          0.39481820       0.61664870       0.51525890
    37  H          0.55140000       0.41460000       0.45640000
    38  H          0.44860000       0.58540000       0.54360000
    39  C          0.70823190       0.40269130       0.48361110
    40  C          0.29176810       0.59730870       0.51638890
    41  C          0.77651190       0.45428130       0.43558110
    42  C          0.22348810       0.54571870       0.56441890
    43  C          0.25142000       0.22673130       0.48854120
    44  C          0.74858000       0.77326870       0.51145880
    45  C          0.33592000       0.22780140       0.41160130
    46  C          0.66408000       0.77219860       0.58839870
    47  H          0.30680000       0.25730000       0.36990000
    48  H          0.69320000       0.74270000       0.63010000
    49  C          0.46062000       0.18676150       0.39541150
    50  C          0.53938000       0.81323850       0.60458850
    51  H          0.51600000       0.18910000       0.34310000
    52  H          0.48400000       0.81090000       0.65690000
    53  C          0.50542000       0.14248160       0.45442180
    54  C          0.49458000       0.85751840       0.54557820
    55  H          0.59120000       0.11360000       0.44280000
    56  H          0.40880000       0.88640000       0.55720000
    57  C          0.42372000       0.14064150       0.53107150
    58  C          0.57628000       0.85935850       0.46892850
    59  H          0.45370000       0.11020000       0.57210000
    60  H          0.54630000       0.88980000       0.42790000
    61  C          0.29922000       0.18288140       0.54784130
    62  C          0.70078000       0.81711860       0.45215870
    63  H          0.24460000       0.18220000       0.60090000
    64  H          0.75540000       0.81780000       0.39910000
    65  C          0.69237190       0.13879140       0.62988110
    66  C          0.30762810       0.86120860       0.37011890
    67  C          0.74502000       0.04701140       0.59932110
    68  C          0.25498000       0.95298860       0.40067890
    69  H          0.82330000       0.02470000       0.55760000
    70  H          0.17670000       0.97530000       0.44240000
    71  C          0.68472000       0.98704860       0.62895130
    72  C          0.31528000       0.01295140       0.37104870
    73  H          0.72190000       0.92420000       0.60740000
    74  H          0.27810000       0.07580000       0.39260000
    75  C          0.57062000       0.01865150       0.68971120
    76  C          0.42938000       0.98134850       0.31028880
    77  H          0.52930000       0.97770000       0.71020000
    78  H          0.47070000       0.02230000       0.28980000
    79  C          0.51743190       0.10933150       0.72019120
    80  C          0.48256810       0.89066850       0.27980880
    81  H          0.43920000       0.13120000       0.76210000
    82  H          0.56080000       0.86880000       0.23790000
    83  C          0.57703190       0.16935140       0.69031110
    84  C          0.42296810       0.83064860       0.30968890
    85  H          0.53850000       0.23240000       0.71140000
    86  H          0.46150000       0.76760000       0.28860000
    87  C          0.73820180       0.51352130       0.37297110
    88  C          0.26179820       0.48647870       0.62702890
    89  C          0.69773170       0.48259130       0.32078110
    90  C          0.30226830       0.51740870       0.67921890
    91  H          0.68910000       0.42450000       0.32780000
    92  H          0.31090000       0.57550000       0.67220000
    93  C          0.66973180       0.53452140       0.25895110
    94  C          0.33026820       0.46547860       0.74104890
    95  H          0.64100000       0.51250000       0.22440000
    96  H          0.35900000       0.48750000       0.77560000
    97  C          0.68347190       0.61827150       0.24731120
    98  C          0.31652810       0.38172850       0.75268880
    99  H          0.66580000       0.65350000       0.20400000
   100  H          0.33420000       0.34650000       0.79600000
   101  C          0.72301190       0.65120140       0.29869120
   102  C          0.27698810       0.34879860       0.70130880
   103  H          0.73180000       0.70920000       0.29110000
   104  H          0.26820000       0.29080000       0.70890000
   105  C          0.74981180       0.59880140       0.36139110
   106  C          0.25018820       0.40119860       0.63860890
   107  H          0.77640000       0.62160000       0.39680000
   108  H          0.22360000       0.37840000       0.60320000
   109  C          0.79332000       0.41984130       0.64421110
   110  C          0.20668000       0.58015870       0.35578890
   111  H          0.84640000       0.41950000       0.67130000
   112  H          0.15360000       0.58050000       0.32870000
   113  C          0.67642000       0.47874130       0.67422110
   114  C          0.32358000       0.52125870       0.32577890
   115  H          0.62320000       0.47090000       0.65090000
   116  H          0.37680000       0.52910000       0.34910000
   117  C          0.61972000       0.55398140       0.73865110
   118  C          0.38028000       0.44601860       0.26134890
   119  C          0.67792000       0.56459160       0.78902120
   120  C          0.32208000       0.43540840       0.21097880
   121  H          0.75620000       0.51940000       0.78450000
   122  H          0.24380000       0.48060000       0.21550000
   123  C          0.62442000       0.63909180       0.84507140
   124  C          0.37558000       0.36090820       0.15492860
   125  H          0.66610000       0.64510000       0.87860000
   126  H          0.33390000       0.35490000       0.12140000
   127  C          0.51083000       0.70527180       0.85314150
   128  C          0.48917000       0.29472820       0.14685850
   129  H          0.47490000       0.75740000       0.89140000
   130  H          0.52510000       0.24260000       0.10860000
   131  C          0.44932000       0.69562170       0.80549140
   132  C          0.55068000       0.30437830       0.19450860
   133  H          0.36990000       0.74010000       0.81160000
   134  H          0.63010000       0.25990000       0.18840000
   135  C          0.50422000       0.62073150       0.74881120
   136  C          0.49578000       0.37926850       0.25118880
   137  H          0.46170000       0.61470000       0.71580000
   138  H          0.53830000       0.38530000       0.28420000
   139  B          0.84882000       0.35017160       0.56560130
   140  B          0.15118000       0.64982840       0.43439870
   141  N          0.93396160       0.37730100       0.49269900
   142  N          0.06603840       0.62269900       0.50730100
   143  N          0.92387160       0.25063110       0.57313900
   144  N          0.07612840       0.74936890       0.42686100
   145  N          0.75359140       0.34503100       0.53663800
   146  N          0.24640860       0.65496900       0.46336200
   147  C          0.24934190       0.18748130       0.11635110
   148  C          0.75065810       0.81251870       0.88364890
   149  C          0.33104180       0.10256130       0.13500110
   150  C          0.66895820       0.89743870       0.86499890
   151  H          0.30960000       0.06800000       0.18030000
   152  H          0.69040000       0.93200000       0.81970000
   153  C          0.44401190       0.08000130       0.07703110
   154  C          0.55598810       0.91999870       0.92296890
   155  H          0.51450000       0.02660000       0.07470000
   156  H          0.48550000       0.97340000       0.92530000
   157  C          0.43909190       0.15082130       0.01938110
   158  C          0.56090810       0.84917870       0.98061890
   159  C          0.52663190       0.17536130       0.95565890
   160  C          0.47336810       0.82463870       0.04434110
   161  C          0.48722000       0.26669140       0.92898890
   162  C          0.51278000       0.73330860       0.07101110
   163  C          0.54922000       0.32743150       0.89093890
   164  C          0.45078000       0.67256850       0.10906110
   165  H          0.63470000       0.30900000       0.86250000
   166  H          0.36530000       0.69100000       0.13750000
   167  C          0.46371190       0.41633150       0.90285890
   168  C          0.53628810       0.58366850       0.09714110
   169  H          0.47980000       0.47020000       0.88440000
   170  H          0.52020000       0.52980000       0.11560000
   171  C          0.34552000       0.41417140       0.94807890
   172  C          0.65448000       0.58582860       0.05192110
   173  C          0.22932000       0.48229140      -0.00805110
   174  C          0.77068000       0.51770860       0.00805110
   175  C          0.14218190       0.45308130       0.05146120
   176  C          0.85781810       0.54691870       0.94853880
   177  C          0.03987180       0.49930140       0.12277120
   178  C          0.96012820       0.50069860       0.87722880
   179  H         -0.00080000       0.56460000       0.13480000
   180  H          0.00080000       0.43540000       0.86520000
   181  C          0.01071180       0.43294130       0.17083110
   182  C          0.98928820       0.56705870       0.82916890
   183  H          0.94590000       0.44430000       0.22180000
   184  H          0.05410000       0.55570000       0.77820000
   185  C          0.09482180       0.34369140       0.13097110
   186  C          0.90517820       0.65630860       0.86902890
   187  C          0.13072190       0.25273130       0.15885110
   188  C          0.86927810       0.74726870       0.84114890
   189  C          0.65742190       0.11431130       0.92585890
   190  C          0.34257810       0.88568870       0.07414110
   191  C          0.71734190       0.06778130       0.97838880
   192  C          0.28265810       0.93221870       0.02161120
   193  H          0.67370000       0.07780000       0.03530000
   194  H          0.32630000       0.92220000       0.96470000
   195  C          0.83892000       0.00730140       0.94964870
   196  C          0.16108000      -0.00730140       0.05035130
   197  H          0.87700000       0.97560000       0.98680000
   198  H          0.12300000       0.02440000       0.01320000
   199  C          0.90472000      -0.00718140       0.86768860
   200  C          0.09528000       0.00718140       0.13231140
   201  H          0.98790000       0.95110000       0.84780000
   202  H          0.01210000       0.04890000       0.15220000
   203  C          0.84782000       0.04005150       0.81442870
   204  C          0.15218000       0.95994850       0.18557130
   205  H          0.89290000       0.03100000       0.75770000
   206  H          0.10710000       0.96900000       0.24230000
   207  C          0.72602000       0.10027140       0.84268880
   208  C          0.27398000       0.89972860       0.15731120
   209  H          0.68870000       0.13230000       0.80520000
   210  H          0.31130000       0.86770000       0.19480000
   211  C          0.20202000       0.58351140       0.98779890
   212  C          0.79798000       0.41648860       0.01220110
   213  C          0.27172000       0.62294150       0.00618140
   214  C          0.72828000       0.37705850      -0.00618140
   215  H          0.34080000       0.58470000       0.01960000
   216  H          0.65920000       0.41530000       0.98040000
   217  C          0.24132000       0.71806160       0.00519140
   218  C          0.75868000       0.28193840      -0.00519140
   219  H          0.28960000       0.74450000       0.01820000
   220  H          0.71040000       0.25550000       0.98180000
   221  C          0.14182000       0.77457150       0.98561880
   222  C          0.85818000       0.22542850       0.01438120
   223  H          0.12110000       0.83970000       0.98530000
   224  H          0.87890000       0.16030000       0.01470000
   225  C          0.07282000       0.73583140       0.96651890
   226  C          0.92718000       0.26416860       0.03348110
   227  H          0.00470000       0.77410000       0.95210000
   228  H          0.99530000       0.22590000       0.04790000
   229  C          0.10242180       0.64111140       0.96824890
   230  C          0.89757820       0.35888860       0.03175110
   231  H          0.05330000       0.61510000       0.95570000
   232  H          0.94670000       0.38490000       0.04430000
   233  C          0.04892000       0.23130130       0.23498110
   234  C          0.95108000       0.76869870       0.76501890
   235  C          0.92928000       0.24666130       0.24253120
   236  C          0.07072000       0.75333870       0.75746880
   237  H          0.90010000       0.27400000       0.20030000
   238  H          0.09990000       0.72600000       0.79970000
   239  C          0.85238000       0.22258130       0.31072120
   240  C          0.14762000       0.77741870       0.68927880
   241  H          0.77150000       0.23280000       0.31470000
   242  H          0.22850000       0.76720000       0.68530000
   243  C          0.89378000       0.18361140       0.37305120
   244  C          0.10622000       0.81638860       0.62694880
   245  H          0.84200000       0.16620000       0.41950000
   246  H          0.15800000       0.83380000       0.58050000
   247  C          0.01082000       0.17029130       0.36705120
   248  C          0.98918000       0.82970870       0.63294880
   249  H          0.03870000       0.14490000       0.41020000
   250  H          0.96130000       0.85510000       0.58980000
   251  C          0.08830190       0.19371130       0.29843110
   252  C          0.91169810       0.80628870       0.70156890
   253  H          0.16880000       0.18390000       0.29500000
   254  H          0.83120000       0.81610000       0.70500000
   255  C          0.22307170       0.25049140       0.93122890
   256  C          0.77692830       0.74950860       0.06877110
   257  H          0.17650000       0.29690000       0.90520000
   258  H          0.82350000       0.70310000       0.09480000
   259  C          0.24714170       0.16268140       0.91189890
   260  C          0.75285830       0.83731860       0.08810110
   261  H          0.29390000       0.11760000       0.93880000
   262  H          0.70610000       0.88240000       0.06120000
   263  C          0.21140190       0.12536150       0.85450890
   264  C          0.78859810       0.87463850       0.14549110
   265  C          0.11882000       0.18026150       0.82618890
   266  C          0.88118000       0.81973850       0.17381110
   267  H          0.07570000       0.24410000       0.84440000
   268  H          0.92430000       0.75590000       0.15560000
   269  C          0.08902000       0.14241170       0.77145880
   270  C          0.91098000       0.85758830       0.22854120
   271  H          0.02590000       0.18060000       0.75250000
   272  H          0.97410000       0.81940000       0.24750000
   273  C          0.15092000       0.04912170       0.74437880
   274  C          0.84908000       0.95087830       0.25562120
   275  H          0.13060000       0.02350000       0.70680000
   276  H          0.86940000       0.97650000       0.29320000
   277  C          0.24162000      -0.00569160       0.77247880
   278  C          0.75838000       0.00569160       0.22752120
   279  H          0.28380000       0.93030000       0.75450000
   280  H          0.71620000       0.06970000       0.24550000
   281  C          0.27194190       0.03142150       0.82645890
   282  C          0.72805810       0.96857850       0.17354110
   283  H          0.33520000      -0.00750000       0.84510000
   284  H          0.66480000       0.00750000       0.15490000
   285  B          0.26592000       0.28492160      -0.00505130
   286  B          0.73408000       0.71507840       0.00505130
   287  N          0.31869150       0.20939100       0.04435900
   288  N          0.68130850       0.79060900       0.95564100
   289  N          0.36496160       0.32187110       0.95674100
   290  N          0.63503840       0.67812890       0.04325900
   291  N          0.16604140       0.36047100       0.05710900
   292  N          0.83395860       0.63952900       0.94289100
