data_RIDFOA01
_symmetry_space_group_name_H-M    'P1'
_symmetry_Int_Tables_number       1
loop_
_symmetry_equiv_pos_site_id
_symmetry_equiv_pos_as_xyz
1 x,y,z
_cell_length_a                   8.72534
_cell_length_b                   9.99937
_cell_length_c                   12.63995
_cell_angle_alpha                67.5024
_cell_angle_beta                 66.5612
_cell_angle_gamma                66.4523
loop_
_atom_site_label
_atom_site_type_symbol
_atom_site_fract_x
_atom_site_fract_y
_atom_site_fract_z
     1  I          0.89670500       0.79339600       0.81948300
     2  I          0.57337500       0.13545500       0.70239300
     3  O          0.35511190       0.43152000       0.54006110
     4  O          0.08972000       0.67382000       0.58743120
     5  O          0.12192000       0.50642000       0.97990110
     6  O          0.37472000       0.25532000       0.93858120
     7  C          0.30372000       0.43773000       0.64509120
     8  C          0.15672000       0.57603000       0.67406130
     9  C          0.09842000       0.60253000       0.78392150
    10  C          0.17032000       0.49173000       0.87918130
    11  C          0.31542000       0.34643000       0.85239120
    12  C          0.37182000       0.32723000       0.73926130
    13  H          0.11550000       0.64950000       0.52120000
    14  I          0.90453500       0.28854500       0.83313300
    15  I          0.57077500       0.63755500       0.69259300
    16  O          0.38212000       0.74753000       0.93011130
    17  O          0.12794170      -0.01058000      -0.00774890
    18  O          0.09872000       0.17773000       0.59502130
    19  O          0.33583170       0.92752000       0.53915110
    20  C          0.31862000       0.84373000       0.85159130
    21  C          0.17162000       0.98493000       0.88439130
    22  C          0.09852000       0.09413000       0.79699150
    23  C          0.15392000       0.07983000       0.67788130
    24  C          0.29382000       0.93793000       0.64843130
    25  C          0.37272000       0.83063000       0.73110150
    26  H          0.22230000       0.02930000       0.49920000
    27  N          0.10371160       0.62032000       0.39653100
    28  N          0.32484160       0.85462000       0.12967110
    29  C          0.16162000       0.68073000       0.27816130
    30  C          0.10455190       0.66143000       0.19733130
    31  C          0.98488000       0.57913000       0.24135140
    32  C          0.92488000       0.51534000       0.36432150
    33  C          0.99148000       0.54123000       0.43731130
    34  C          0.29612190       0.75763000       0.23946120
    35  C          0.39722000       0.73113000       0.31151130
    36  C          0.52592000       0.80253000       0.26866140
    37  C          0.55772000       0.89853000       0.15275150
    38  C          0.45122000       0.92113000       0.08617130
    39  C          0.79908000       0.42614000       0.41839180
    40  C          0.69832000       0.97714000       0.10092000
    41  H          0.14660000       0.69850000       0.11231700
    42  H          0.94070000       0.56440000       0.19120000
    43  H          0.95970000       0.49230000       0.52211600
    44  H          0.38940000       0.65630000       0.38620000
    45  H          0.60040000       0.78050000       0.31230000
    46  H          0.45840000      -0.00470000       0.01320000
    47  H          0.68350000       0.49180000       0.43650000
    48  H          0.82080000       0.35340000       0.48980000
    49  H          0.81200000       0.37590000       0.36360000
    50  H          0.65130000       0.07250000       0.11830000
    51  H          0.74050000      -0.00830000       0.01670000
    52  H          0.79170000       0.91650000       0.13510000
    53  H          0.24430000       0.87440000       0.08830000
    54  N          0.13951170       0.08322000       0.38674110
    55  N          0.36977160       0.30972000       0.12030110
    56  C          0.16932000       0.17363000       0.27422130
    57  C          0.07532000       0.19523000       0.19876130
    58  C          0.94648000       0.12373000       0.24182140
    59  C          0.90978000       0.03444000       0.35949160
    60  C          0.01272000       0.01763000       0.42755140
    61  C          0.30174190       0.25143000       0.23768120
    62  C          0.35387190       0.27313000       0.31953120
    63  C          0.47572000       0.35183000       0.27819140
    64  C          0.54432000       0.41223000       0.15559140
    65  C          0.48401190       0.38953000       0.07897130
    66  C          0.76928000       0.95866000       0.41272000
    67  C          0.67382000       0.50214000       0.10472000
    68  H          0.09230000       0.26630000       0.11981900
    69  H          0.87670000       0.13640000       0.19820000
    70  H          0.99150000       0.94160000       0.50320000
    71  H          0.30440000       0.24940000       0.40341700
    72  H          0.49830000       0.38030000       0.33320000
    73  H          0.53350000       0.41050000      -0.00701600
    74  H          0.64350000       0.58620000       0.04080000
    75  H          0.67160000       0.53720000       0.16550000
    76  H          0.78780000       0.43940000       0.07600000
    77  H          0.66270000       0.02450000       0.44800000
    78  H          0.75530000       0.93480000       0.35190000
    79  H          0.80060000       0.86830000       0.47220000
    80  H          0.34830000       0.29540000       0.06320000
