data_RIDKUK
_symmetry_space_group_name_H-M    'P1'
_symmetry_Int_Tables_number       1
loop_
_symmetry_equiv_pos_site_id
_symmetry_equiv_pos_as_xyz
1 x,y,z
_cell_length_a                   5.37378
_cell_length_b                   7.957201
_cell_length_c                   20.5614
_cell_angle_alpha                90.0
_cell_angle_beta                 97.9381
_cell_angle_gamma                90.0
loop_
_atom_site_label
_atom_site_type_symbol
_atom_site_fract_x
_atom_site_fract_y
_atom_site_fract_z
     1  O          0.53003000       0.18820000       0.71667800
     2  O          0.46997000       0.68820000       0.28332200
     3  O          0.87994000       0.16304000       0.10892100
     4  O          0.12006000       0.66304000       0.89107900
     5  O          0.19854000       0.31344000       0.14641100
     6  O          0.80146000       0.81344000       0.85358900
     7  N          0.00975000       0.23164000       0.15424120
     8  N         -0.00975000       0.73164000       0.84575880
     9  C          0.60344000       0.20114000       0.65583110
    10  C          0.39656000       0.70114000       0.34416890
    11  C          0.80644000       0.29914000       0.64423110
    12  C          0.19356000       0.79914000       0.35576890
    13  C          0.87715000       0.30414000       0.58195120
    14  C          0.12285000       0.80414000       0.41804880
    15  C          0.74915000       0.21714000       0.53040120
    16  C          0.25085000       0.71714000       0.46959880
    17  C          0.54245000       0.11924000       0.54331120
    18  C          0.45755000       0.61924000       0.45668880
    19  C          0.47065000       0.11164000       0.60517130
    20  C          0.52935000       0.61164000       0.39482870
    21  C          0.82945000       0.23384000       0.46331000
    22  C          0.17055000       0.73384000       0.53669000
    23  C          0.72075000       0.17404000       0.40921000
    24  C          0.27925000       0.67404000       0.59079000
    25  C          0.80695000       0.19464000       0.34444120
    26  C          0.19305000       0.69464000       0.65555880
    27  C          0.01455000       0.29074000       0.33398110
    28  C         -0.01455000       0.79074000       0.66601890
    29  C          0.08184000       0.30614000       0.27058130
    30  C          0.91816000       0.80614000       0.72941870
    31  C          0.94005000       0.22174000       0.21954120
    32  C          0.05995000       0.72174000       0.78045880
    33  C          0.73255000       0.12793000       0.22843120
    34  C          0.26745000       0.62793000       0.77156880
    35  C          0.66905000       0.11504000       0.29041000
    36  C          0.33095000       0.61504000       0.70959000
    37  H          0.64180000       0.27410000       0.74920000
    38  H          0.35820000       0.77410000       0.25080000
    39  H          0.91220000       0.36540000       0.68430000
    40  H          0.08780000       0.86540000       0.31570000
    41  H          0.04460000       0.38060000       0.57420000
    42  H          0.95540000       0.88060000       0.42580000
    43  H          0.43460000       0.05260000       0.50130000
    44  H          0.56540000       0.55260000       0.49870000
    45  H          0.31300000       0.03100000       0.61400000
    46  H          0.68700000       0.53100000       0.38600000
    47  H          0.00280000       0.30340000       0.45970000
    48  H         -0.00280000       0.80340000       0.54030000
    49  H          0.54780000       0.10130000       0.41010000
    50  H          0.45220000       0.60130000       0.58990000
    51  H          0.12560000       0.35310000       0.37500000
    52  H          0.87440000       0.85310000       0.62500000
    53  H          0.24350000       0.38310000       0.26150000
    54  H          0.75650000       0.88310000       0.73850000
    55  H          0.61810000       0.06390000       0.18680000
    56  H          0.38190000       0.56390000       0.81320000
    57  H          0.50300000       0.03820000       0.29980000
    58  H          0.49700000       0.53820000       0.70020000
    59  O          0.78963000       0.37293000       0.80472800
    60  O          0.21037000       0.87293000       0.19527200
    61  N          0.95394000       0.28213000       0.84403100
    62  N          0.04606000       0.78213000       0.15596900
    63  C          0.13975000       0.19784000       0.82049110
    64  C          0.86025000       0.69784000       0.17950890
    65  C          0.30755000       0.10424000       0.86137130
    66  C          0.69245000       0.60424000       0.13862870
    67  C          0.29605000       0.09544000       0.92875130
    68  C          0.70395000       0.59544000       0.07124870
    69  C          0.10856000       0.18454000       0.95207120
    70  C          0.89144000       0.68454000       0.04792880
    71  C          0.94015000       0.27794000       0.90946130
    72  C          0.05985000       0.77794000       0.09053870
    73  C          0.47785000      -0.00964000       0.97433120
    74  C          0.52215000       0.49036000       0.02566880
    75  H          0.14980000       0.20100000       0.76730000
    76  H          0.85020000       0.70100000       0.23270000
    77  H          0.46180000       0.03500000       0.84150000
    78  H          0.53820000       0.53500000       0.15850000
    79  H          0.09280000       0.18140000       0.00480000
    80  H          0.90720000       0.68140000      -0.00480000
    81  H          0.78870000       0.34730000       0.92920000
    82  H          0.21130000       0.84730000       0.07080000
    83  H          0.44690000       0.00360000       0.02540000
    84  H          0.55310000       0.50360000       0.97460000
    85  H          0.45650000       0.85510000       0.96210000
    86  H          0.54350000       0.35510000       0.03790000
    87  H          0.67250000       0.02310000       0.97120000
    88  H          0.32750000       0.52310000       0.02880000
