data_RIDLEV
_symmetry_space_group_name_H-M    'P1'
_symmetry_Int_Tables_number       1
loop_
_symmetry_equiv_pos_site_id
_symmetry_equiv_pos_as_xyz
1 x,y,z
_cell_length_a                   37.1703
_cell_length_b                   5.69474
_cell_length_c                   7.60386
_cell_angle_alpha                90.0
_cell_angle_beta                 90.0
_cell_angle_gamma                90.0
loop_
_atom_site_label
_atom_site_type_symbol
_atom_site_fract_x
_atom_site_fract_y
_atom_site_fract_z
     1  O          0.40650500       0.03773000       0.51310000
     2  O          0.59349500       0.96227000       0.01310000
     3  O          0.09349500       0.03773000       0.01310000
     4  O          0.90650500       0.96227000       0.51310000
     5  O          0.66840700       0.73306000       0.38646000
     6  O          0.33159300       0.26694000       0.88646000
     7  O          0.83159300       0.73306000       0.88646000
     8  O          0.16840700       0.26694000       0.38646000
     9  O          0.68356700       0.43065000       0.53965000
    10  O          0.31643300       0.56935000       0.03965000
    11  O          0.81643300       0.43065000       0.03965000
    12  O          0.18356700       0.56935000       0.53965000
    13  N          0.66100800       0.55316000       0.46855000
    14  N          0.33899200       0.44684000       0.96855000
    15  N          0.83899200       0.55316000       0.96855000
    16  N          0.16100800       0.44684000       0.46855000
    17  C          0.44122700       0.11725000       0.50675000
    18  C          0.55877300       0.88275000       0.00675000
    19  C          0.05877300       0.11725000       0.00675000
    20  C          0.94122700       0.88275000       0.50675000
    21  C          0.45044700       0.32485000       0.42245000
    22  C          0.54955300       0.67515000       0.92245000
    23  C          0.04955300       0.32485000       0.92245000
    24  C          0.95044700       0.67515000       0.42245000
    25  C          0.48620700       0.39764000       0.42255000
    26  C          0.51379300       0.60236000       0.92255000
    27  C          0.01379300       0.39764000       0.92255000
    28  C          0.98620700       0.60236000       0.42255000
    29  C          0.51364700       0.26564000       0.50255000
    30  C          0.48635300       0.73436000       0.00255000
    31  C          0.98635300       0.26564000       0.00255000
    32  C          0.01364700       0.73436000       0.50255000
    33  C          0.50285800       0.05754000       0.58565000
    34  C          0.49714200       0.94246000       0.08565000
    35  C         -0.00285800       0.05754000       0.08565000
    36  C          0.00285800       0.94246000       0.58565000
    37  C          0.46732800      -0.01724000       0.58835000
    38  C          0.53267200       0.01724000       0.08835000
    39  C          0.03267200      -0.01724000       0.08835000
    40  C          0.96732800       0.01724000       0.58835000
    41  C          0.55154700       0.33995000       0.49525000
    42  C          0.44845300       0.66005000      -0.00475000
    43  C          0.94845300       0.33995000      -0.00475000
    44  C          0.05154700       0.66005000       0.49525000
    45  C          0.56182800       0.54805000       0.41036000
    46  C          0.43817200       0.45195000       0.91036000
    47  C          0.93817200       0.54805000       0.91036000
    48  C          0.06182800       0.45195000       0.41036000
    49  C          0.59736900       0.61605000       0.40245000
    50  C          0.40263100       0.38395000       0.90245000
    51  C          0.90263100       0.61605000       0.90245000
    52  C          0.09736900       0.38395000       0.40245000
    53  C          0.62332800       0.47736000       0.47945000
    54  C          0.37667200       0.52264000       0.97945000
    55  C          0.87667200       0.47736000       0.97945000
    56  C          0.12332800       0.52264000       0.47945000
    57  C          0.61490800       0.27006000       0.56186000
    58  C          0.38509200       0.72994000       0.06186000
    59  C          0.88509200       0.27006000       0.06186000
    60  C          0.11490800       0.72994000       0.56186000
    61  C          0.57905800       0.20385000       0.57035000
    62  C          0.42094200       0.79615000       0.07035000
    63  C          0.92094200       0.20385000       0.07035000
    64  C          0.07905800       0.79615000       0.57035000
    65  H          0.39420000       0.15220000       0.44630000
    66  H          0.60580000       0.84780000       0.94630000
    67  H          0.10580000       0.15220000       0.94630000
    68  H          0.89420000       0.84780000       0.44630000
    69  H          0.43020000       0.42830000       0.35810000
    70  H          0.56980000       0.57170000       0.85810000
    71  H          0.06980000       0.42830000       0.85810000
    72  H          0.93020000       0.57170000       0.35810000
    73  H          0.49310000       0.55990000       0.35860000
    74  H          0.50690000       0.44010000       0.85860000
    75  H          0.00690000       0.55990000       0.85860000
    76  H          0.99310000       0.44010000       0.35860000
    77  H          0.52280000       0.95210000       0.64950000
    78  H          0.47720000       0.04790000       0.14950000
    79  H          0.97720000       0.95210000       0.14950000
    80  H          0.02280000       0.04790000       0.64950000
    81  H          0.46030000       0.82310000       0.65280000
    82  H          0.53970000       0.17690000       0.15280000
    83  H          0.03970000       0.82310000       0.15280000
    84  H          0.96030000       0.17690000       0.65280000
    85  H          0.54170000       0.65640000       0.34970000
    86  H          0.45830000       0.34360000       0.84970000
    87  H          0.95830000       0.65640000       0.84970000
    88  H          0.04170000       0.34360000       0.34970000
    89  H          0.60470000       0.77610000       0.33650000
    90  H          0.39530000       0.22390000       0.83650000
    91  H          0.89530000       0.77610000       0.83650000
    92  H          0.10470000       0.22390000       0.33650000
    93  H          0.63560000       0.16290000       0.61850000
    94  H          0.36440000       0.83710000       0.11850000
    95  H          0.86440000       0.16290000       0.11850000
    96  H          0.13560000       0.83710000       0.61850000
    97  H          0.57220000       0.04380000       0.63610000
    98  H          0.42780000       0.95620000       0.13610000
    99  H          0.92780000       0.04380000       0.13610000
   100  H          0.07220000       0.95620000       0.63610000
   101  O          0.36034600       0.28894000       0.34135000
   102  O          0.63965400       0.71106000       0.84135000
   103  O          0.13965400       0.28894000       0.84135000
   104  O          0.86034600       0.71106000       0.34135000
   105  N          0.33835700       0.42644000       0.43145000
   106  N          0.66164300       0.57356000       0.93145000
   107  N          0.16164300       0.42644000       0.93145000
   108  N          0.83835700       0.57356000       0.43145000
   109  N          0.24761000      -0.02034000       0.76427000
   110  N          0.75239000       0.02034000       0.26427000
   111  N          0.25239000      -0.02034000       0.26427000
   112  N          0.74761000       0.02034000       0.76427000
   113  C          0.30307800       0.36825000       0.43476000
   114  C          0.69692200       0.63175000       0.93476000
   115  C          0.19692200       0.36825000       0.93476000
   116  C          0.80307800       0.63175000       0.43476000
   117  C          0.27944800       0.50906000       0.52126000
   118  C          0.72055200       0.49094000       0.02126000
   119  C          0.22055200       0.50906000       0.02126000
   120  C          0.77944800       0.49094000       0.52126000
   121  C          0.29134100       0.71016000       0.60656000
   122  C          0.70865900       0.28984000       0.10656000
   123  C          0.20865900       0.71016000       0.10656000
   124  C          0.79134100       0.28984000       0.60656000
   125  C          0.32814900       0.76176000       0.59955000
   126  C          0.67185100       0.23824000       0.09955000
   127  C          0.17185100       0.76176000       0.09955000
   128  C          0.82814900       0.23824000       0.59955000
   129  C          0.35093800       0.62046000       0.51186000
   130  C          0.64906200       0.37954000       0.01186000
   131  C          0.14906200       0.62046000       0.01186000
   132  C          0.85093800       0.37954000       0.51186000
   133  C          0.26669110       0.85907000       0.69477000
   134  C          0.73330890       0.14093000       0.19477000
   135  C          0.23330890       0.85907000       0.19477000
   136  C          0.76669110       0.14093000       0.69477000
   137  H          0.29380000       0.21270000       0.36890000
   138  H          0.70620000       0.78730000       0.86890000
   139  H          0.20620000       0.21270000       0.86890000
   140  H          0.79380000       0.78730000       0.36890000
   141  H          0.25130000       0.46460000       0.52290000
   142  H          0.74870000       0.53540000       0.02290000
   143  H          0.24870000       0.46460000       0.02290000
   144  H          0.75130000       0.53540000       0.52290000
   145  H          0.33820000       0.91650000       0.66490000
   146  H          0.66180000       0.08350000       0.16490000
   147  H          0.16180000       0.91650000       0.16490000
   148  H          0.83820000       0.08350000       0.66490000
   149  H          0.37920000       0.66240000       0.50390000
   150  H          0.62080000       0.33760000       0.00390000
   151  H          0.12080000       0.66240000       0.00390000
   152  H          0.87920000       0.33760000       0.50390000
