data_RIDYOW
_symmetry_space_group_name_H-M    'P1'
_symmetry_Int_Tables_number       1
loop_
_symmetry_equiv_pos_site_id
_symmetry_equiv_pos_as_xyz
1 x,y,z
_cell_length_a                   14.51987
_cell_length_b                   9.98323
_cell_length_c                   18.14087
_cell_angle_alpha                90.0
_cell_angle_beta                 113.4456
_cell_angle_gamma                90.0
loop_
_atom_site_label
_atom_site_type_symbol
_atom_site_fract_x
_atom_site_fract_y
_atom_site_fract_z
     1  Br         0.59204300       0.97885400       0.40679200
     2  Br         0.90795700       0.47885400       0.09320800
     3  Br         0.40795700       0.02114600       0.59320800
     4  Br         0.09204300       0.52114600       0.90679200
     5  Br         0.42427300       0.63180500       0.57013200
     6  Br         0.07572700       0.13180500       0.92986800
     7  Br         0.57572700       0.36819500       0.42986800
     8  Br         0.92427300       0.86819500       0.07013200
     9  Br         0.46626300       0.05407500       0.07790300
    10  Br         0.03373700       0.55407500       0.42209700
    11  Br         0.53373700       0.94592500       0.92209700
    12  Br         0.96626300       0.44592500       0.57790300
    13  S          0.25354700       0.50377100       0.20637600
    14  S          0.24645300       0.00377100       0.29362400
    15  S          0.74645300       0.49622900       0.79362400
    16  S          0.75354700      -0.00377100       0.70637600
    17  O          0.45517180       0.79233000       0.26369140
    18  O          0.04482820       0.29233000       0.23630860
    19  O          0.54482820       0.20767000       0.73630860
    20  O          0.95517180       0.70767000       0.76369140
    21  O          0.17288190       0.55973000       0.13812160
    22  O          0.32711810       0.05973000       0.36187840
    23  O          0.82711810       0.44027000       0.86187840
    24  O          0.67288190       0.94027000       0.63812160
    25  O          0.54312000       0.56533000       0.21922170
    26  O          0.95688000       0.06533000       0.28077830
    27  O          0.45688000       0.43467000       0.78077830
    28  O          0.04312000       0.93467000       0.71922170
    29  H          0.59650000       0.52660000       0.24360000
    30  H          0.90350000       0.02660000       0.25640000
    31  H          0.40350000       0.47340000       0.75640000
    32  H          0.09650000       0.97340000       0.74360000
    33  O          0.23252000       0.44633000       0.27094160
    34  O          0.26748000       0.94633000       0.22905840
    35  O          0.76748000       0.55367000       0.72905840
    36  O          0.73252000       0.05367000       0.77094160
    37  O          0.60242000       0.57534000       0.12321190
    38  O          0.89758000       0.07534000       0.37678810
    39  O          0.39758000       0.42466000       0.87678810
    40  O          0.10242000       0.92466000       0.62321190
    41  C          0.38883000       0.66274000       0.33352000
    42  C          0.11117000       0.16274000       0.16648000
    43  C          0.61117000       0.33726000       0.66648000
    44  C          0.88883000       0.83726000       0.83352000
    45  C          0.26703000       0.80004000      -0.00642000
    46  C          0.23297000       0.30004000       0.50642000
    47  C          0.73297000       0.19996000       0.00642000
    48  C          0.76703000       0.69996000       0.49358000
    49  H          0.20920000       0.84360000       0.95930000
    50  H          0.29080000       0.34360000       0.54070000
    51  H          0.79080000       0.15640000       0.04070000
    52  H          0.70920000       0.65640000       0.45930000
    53  C          0.45573000       0.76514000       0.33812000
    54  C          0.04427000       0.26514000       0.16188000
    55  C          0.54427000       0.23486000       0.66188000
    56  C          0.95573000       0.73486000       0.83812000
    57  C          0.35313000       0.29024000       0.06472000
    58  C          0.14687000       0.79024000       0.43528000
    59  C          0.64687000       0.70976000       0.93528000
    60  C          0.85313000       0.20976000       0.56472000
    61  H          0.35020000       0.29370000       0.01260000
    62  H          0.14980000       0.79370000       0.48740000
    63  H          0.64980000       0.70630000       0.98740000
    64  H          0.85020000       0.20630000       0.51260000
    65  C          0.37833000       0.62134000       0.40362000
    66  C          0.12167000       0.12134000       0.09638000
    67  C          0.62167000       0.37866000       0.59638000
    68  C          0.87833000       0.87866000       0.90362000
    69  H          0.33460000       0.55280000       0.40290000
    70  H          0.16540000       0.05280000       0.09710000
    71  H          0.66540000       0.44720000       0.59710000
    72  H          0.83460000       0.94720000       0.90290000
    73  C          0.40383000       0.18814000       0.11582000
    74  C          0.09617000       0.68814000       0.38418000
    75  C          0.59617000       0.81186000       0.88418000
    76  C          0.90383000       0.31186000       0.61582000
    77  C          0.51133000       0.83194000       0.40832000
    78  C         -0.01133000       0.33194000       0.09168000
    79  C          0.48867000       0.16806000       0.59168000
    80  C          0.01133000       0.66806000       0.90832000
    81  C          0.30663000       0.38764000       0.09222000
    82  C          0.19337000       0.88764000       0.40778000
    83  C          0.69337000       0.61236000       0.90778000
    84  C          0.80663000       0.11236000       0.59222000
    85  H          0.27110000       0.45670000       0.05840000
    86  H          0.22890000       0.95670000       0.44160000
    87  H          0.72890000       0.54330000       0.94160000
    88  H          0.77110000       0.04330000       0.55840000
    89  C          0.38643000       0.70584000       0.21132000
    90  C          0.11357000       0.20584000       0.28868000
    91  C          0.61357000       0.29416000       0.78868000
    92  C          0.88643000       0.79416000       0.71132000
    93  C          0.36433000       0.27764000       0.22202000
    94  C          0.13567000       0.77764000       0.27798000
    95  C          0.63567000       0.72236000       0.77798000
    96  C          0.86433000       0.22236000       0.72202000
    97  H          0.36820000       0.27430000       0.27440000
    98  H          0.13180000       0.77430000       0.22560000
    99  H          0.63180000       0.72570000       0.72560000
   100  H          0.86820000       0.22570000       0.77440000
   101  C          0.44173000       0.66874000       0.09662000
   102  C          0.05827000       0.16874000       0.40338000
   103  C          0.55827000       0.33126000       0.90338000
   104  C          0.94173000       0.83126000       0.59662000
   105  C          0.53633000       0.59734000       0.14683000
   106  C          0.96367000       0.09734000       0.35317000
   107  C          0.46367000       0.40266000       0.85317000
   108  C          0.03633000       0.90266000       0.64683000
   109  C          0.34423000       0.62804000       0.24972000
   110  C          0.15577000       0.12804000       0.25028000
   111  C          0.65577000       0.37196000       0.75028000
   112  C          0.84423000       0.87196000       0.74972000
   113  C          0.31323000       0.38134000       0.17092000
   114  C          0.18677000       0.88134000       0.32908000
   115  C          0.68677000       0.61866000       0.82908000
   116  C          0.81323000       0.11866000       0.67092000
   117  C          0.40943000       0.17914000       0.19382000
   118  C          0.09057000       0.67914000       0.30618000
   119  C          0.59057000       0.82086000       0.80618000
   120  C          0.90943000       0.32086000       0.69382000
   121  H          0.44280000       0.10800000       0.22670000
   122  H          0.05720000       0.60800000       0.27330000
   123  H          0.55720000       0.89200000       0.77330000
   124  H          0.94280000       0.39200000       0.72670000
   125  C          0.37163000       0.71704000       0.12622000
   126  C          0.12837000       0.21704000       0.37378000
   127  C          0.62837000       0.28296000       0.87378000
   128  C          0.87163000       0.78296000       0.62622000
   129  C          0.43623000       0.68724000       0.47382000
   130  C          0.06377000       0.18724000       0.02618000
   131  C          0.56377000       0.31276000       0.52618000
   132  C          0.93623000       0.81276000       0.97382000
   133  C          0.33663000       0.75325000       0.96498000
   134  C          0.16337000       0.25325000       0.53502000
   135  C          0.66337000       0.24675000       0.03502000
   136  C          0.83663000       0.74675000       0.46498000
   137  H          0.32510000       0.76580000       0.91130000
   138  H          0.17490000       0.26580000       0.58870000
   139  H          0.67490000       0.23420000       0.08870000
   140  H          0.82510000       0.73420000       0.41130000
   141  C          0.28453000       0.78104000       0.07432000
   142  C          0.21547000       0.28104000       0.42568000
   143  C          0.71547000       0.21896000       0.92568000
   144  C          0.78453000       0.71896000       0.57432000
   145  H          0.23780000       0.81130000       0.09360000
   146  H          0.26220000       0.31130000       0.40640000
   147  H          0.76220000       0.18870000       0.90640000
   148  H          0.73780000       0.68870000       0.59360000
   149  C          0.42253000       0.68844000       0.01512000
   150  C          0.07747000       0.18844000       0.48488000
   151  C          0.57747000       0.31156000       0.98488000
   152  C          0.92253000       0.81156000       0.51512000
   153  H          0.46820000       0.65740000      -0.00520000
   154  H          0.03180000       0.15740000       0.50520000
   155  H          0.53180000       0.34260000       0.00520000
   156  H          0.96820000       0.84260000       0.49480000
   157  C          0.50293000       0.79154000       0.47822000
   158  C         -0.00293000       0.29154000       0.02178000
   159  C          0.49707000       0.20846000       0.52178000
   160  C          0.00293000       0.70846000       0.97822000
   161  H          0.54060000       0.83260000       0.52700000
   162  H          0.95940000       0.33260000       0.97300000
   163  H          0.45940000       0.16740000       0.47300000
   164  H          0.04060000       0.66740000       0.02700000
   165  S          0.77321800       0.36974110       0.32433600
   166  S          0.72678200       0.86974110       0.17566400
   167  S          0.22678200       0.63025890       0.67566400
   168  S          0.27321800       0.13025890       0.82433600
   169  O          0.71902000       0.50053000       0.32025180
   170  O          0.78098000       0.00053000       0.17974820
   171  O          0.28098000       0.49947000       0.67974820
   172  O          0.21902000      -0.00053000       0.82025180
   173  C          0.81823000       0.37825000       0.24703000
   174  C          0.68177000       0.87825000       0.25297000
   175  C          0.18177000       0.62175000       0.75297000
   176  C          0.31823000       0.12175000       0.74703000
   177  H          0.87280000       0.44080000       0.26180000
   178  H          0.62720000       0.94080000       0.23820000
   179  H          0.12720000       0.55920000       0.73820000
   180  H          0.37280000       0.05920000       0.76180000
   181  H          0.76510000       0.40720000       0.19800000
   182  H          0.73490000       0.90720000       0.30200000
   183  H          0.23490000       0.59280000       0.80200000
   184  H          0.26510000       0.09280000       0.69800000
   185  H          0.84110000       0.29130000       0.23910000
   186  H          0.65890000       0.79130000       0.26090000
   187  H          0.15890000       0.70870000       0.76090000
   188  H          0.34110000       0.20870000       0.73910000
   189  C          0.67794000       0.24915000       0.27713000
   190  C          0.82206000       0.74915000       0.22287000
   191  C          0.32206000       0.75085000       0.72287000
   192  C          0.17794000       0.25085000       0.77713000
   193  H          0.64320000       0.22980000       0.31120000
   194  H          0.85680000       0.72980000       0.18880000
   195  H          0.35680000       0.77020000       0.68880000
   196  H          0.14320000       0.27020000       0.81120000
   197  H          0.70780000       0.16850000       0.26790000
   198  H          0.79220000       0.66850000       0.23210000
   199  H          0.29220000       0.83150000       0.73210000
   200  H          0.20780000       0.33150000       0.76790000
   201  H          0.63130000       0.28390000       0.22670000
   202  H          0.86870000       0.78390000       0.27330000
   203  H          0.36870000       0.71610000       0.77330000
   204  H          0.13130000       0.21610000       0.72670000
