data_RIGJUP
_symmetry_space_group_name_H-M    'P1'
_symmetry_Int_Tables_number       1
loop_
_symmetry_equiv_pos_site_id
_symmetry_equiv_pos_as_xyz
1 x,y,z
_cell_length_a                   10.444319
_cell_length_b                   10.552019
_cell_length_c                   13.0542
_cell_angle_alpha                86.3822
_cell_angle_beta                 86.5892
_cell_angle_gamma                85.4532
loop_
_atom_site_label
_atom_site_type_symbol
_atom_site_fract_x
_atom_site_fract_y
_atom_site_fract_z
     1  Br         0.96710300       0.25118300       0.24635300
     2  Br         0.03289700       0.74881700       0.75364700
     3  S          0.32087700       0.90023600       0.46895500
     4  S          0.67912300       0.09976400       0.53104500
     5  N          0.53292000       0.60312000       0.38337160
     6  N          0.46708000       0.39688000       0.61662840
     7  N          0.43232000       0.68422000       0.41133170
     8  N          0.56768000       0.31578000       0.58866830
     9  O          0.27299180       0.49197170       0.39937150
    10  O          0.72700820       0.50802830       0.60062850
    11  O          0.23912000       0.10274170       0.92206860
    12  O          0.76088000       0.89725830       0.07793140
    13  C          0.29343000       0.23132000       0.33092000
    14  C          0.70657000       0.76868000       0.66908000
    15  H          0.21080000       0.27290000       0.35730000
    16  H          0.78920000       0.72710000       0.64270000
    17  H          0.31110000       0.15170000       0.37370000
    18  H          0.68890000       0.84830000       0.62630000
    19  N          0.39572000       0.31548190       0.34098150
    20  N          0.60428000       0.68451810       0.65901850
    21  C          0.44983000       0.80822000       0.42888190
    22  C          0.55017000       0.19178000       0.57111810
    23  N          0.56693000       0.84482000       0.41242000
    24  N          0.43307000       0.15518000       0.58758000
    25  C          0.38263000       0.86598000      -0.00432000
    26  C          0.61737000       0.13402000       0.00432000
    27  H          0.46310000       0.87750000       0.02770000
    28  H          0.53690000       0.12250000       0.97230000
    29  H          0.37600000       0.92230000       0.93330000
    30  H          0.62400000       0.07770000       0.06670000
    31  H          0.38170000       0.77720000       0.97780000
    32  H          0.61830000       0.22280000       0.02220000
    33  C          0.26762000       0.89878000       0.07182000
    34  C          0.73238000       0.10122000       0.92818000
    35  C          0.26542000       0.03972000       0.09652190
    36  C          0.73458000       0.96028000       0.90347810
    37  C          0.27862000       0.07342000       0.19661190
    38  C          0.72138000       0.92658000       0.80338810
    39  H          0.28600000       0.00820000       0.25000000
    40  H          0.71400000      -0.00820000       0.75000000
    41  C          0.28112000       0.19892000       0.22053190
    42  C          0.71888000       0.80108000       0.77946810
    43  C          0.37673000       0.43672000       0.37262190
    44  C          0.62327000       0.56328000       0.62737810
    45  C          0.50682000       0.48902000       0.36666180
    46  C          0.49318000       0.51098000       0.63333820
    47  C          0.14023000       0.87127000       0.02742000
    48  C          0.85977000       0.12873000       0.97258000
    49  H          0.14320000       0.78130000       0.01220000
    50  H          0.85680000       0.21870000       0.98780000
    51  H          0.12730000       0.92460000       0.96420000
    52  H          0.87270000       0.07540000       0.03580000
    53  H          0.06890000       0.89030000       0.07780000
    54  H          0.93110000       0.10970000       0.92220000
    55  C          0.28653000       0.80988000       0.16832000
    56  C          0.71347000       0.19012000       0.83168000
    57  H          0.21420000       0.82570000       0.21830000
    58  H          0.78580000       0.17430000       0.78170000
    59  H          0.36680000       0.82610000       0.19860000
    60  H          0.63320000       0.17390000       0.80140000
    61  H          0.29060000       0.72110000       0.14960000
    62  H          0.70940000       0.27890000       0.85040000
    63  C          0.25402000       0.13902000       0.01964190
    64  C          0.74598000       0.86098000       0.98035810
    65  C          0.25912000       0.26782000       0.04118190
    66  C          0.74088000       0.73218000       0.95881810
    67  C          0.27262000       0.29392000       0.14345190
    68  C          0.72738000       0.70608000       0.85654810
    69  H          0.27600000       0.37980000       0.16030000
    70  H          0.72400000       0.62020000       0.83970000
    71  C          0.25023000       0.37652000       0.95718000
    72  C          0.74977000       0.62348000       0.04282000
    73  C          0.26443000       0.50652000       0.00022000
    74  C          0.73557000       0.49348000      -0.00022000
    75  H          0.19590000       0.52340000       0.05330000
    76  H          0.80410000       0.47660000       0.94670000
    77  H          0.25800000       0.57310000       0.94460000
    78  H          0.74200000       0.42690000       0.05540000
    79  H          0.34820000       0.50590000       0.03020000
    80  H          0.65180000       0.49410000       0.96980000
    81  C          0.35953000       0.35873000       0.87358000
    82  C          0.64047000       0.64127000       0.12642000
    83  H          0.35220000       0.42920000       0.82130000
    84  H          0.64780000       0.57080000       0.17870000
    85  H          0.35320000       0.27800000       0.84170000
    86  H          0.64680000       0.72200000       0.15830000
    87  H          0.44270000       0.35750000       0.90480000
    88  H          0.55730000       0.64250000       0.09520000
    89  C          0.11573000       0.38463000       0.91228000
    90  C          0.88427000       0.61537000       0.08772000
    91  H          0.04920000       0.39500000       0.96790000
    92  H          0.95080000       0.60500000       0.03210000
    93  H          0.10520000       0.30620000       0.87820000
    94  H          0.89480000       0.69380000       0.12180000
    95  H          0.10770000       0.45760000       0.86230000
    96  H          0.89230000       0.54240000       0.13770000
    97  C          0.52662000       0.28432000       0.31531180
    98  C          0.47338000       0.71568000       0.68468820
    99  C          0.59812000       0.38692000       0.33274180
   100  C          0.40188000       0.61308000       0.66725820
   101  C          0.73023000       0.37863000       0.31402000
   102  C          0.26977000       0.62137000       0.68598000
   103  H          0.78000000       0.44700000       0.32660000
   104  H          0.22000000       0.55300000       0.67340000
   105  C          0.78693000       0.26623000       0.27622000
   106  C          0.21307000       0.73377000       0.72378000
   107  C          0.71593000       0.16573000       0.25732000
   108  C          0.28407000       0.83427000       0.74268000
   109  H          0.75820000       0.09070000       0.23070000
   110  H          0.24180000       0.90930000       0.76930000
   111  C          0.58343000       0.17352000       0.27682000
   112  C          0.41657000       0.82648000       0.72318000
   113  H          0.53380000       0.10510000       0.26410000
   114  H          0.46620000       0.89490000       0.73590000
   115  H          0.62840000       0.80430000       0.38430000
   116  H          0.37160000       0.19570000       0.61570000
   117  H          0.57430000       0.91930000       0.42420000
   118  H          0.42570000       0.08070000       0.57580000
   119  H          0.36430000       0.65730000       0.41820000
   120  H          0.63570000       0.34270000       0.58180000
   121  H          0.22930000       0.16420000       0.88180000
   122  H          0.77070000       0.83580000       0.11820000
   123  S          0.05599800       0.21652100       0.67920700
   124  S          0.94400200       0.78347900       0.32079300
   125  O          0.19492000       0.21262000       0.70287180
   126  O          0.80508000       0.78738000       0.29712820
   127  C          0.02385000       0.35474000       0.60015000
   128  C          0.97615000       0.64526000       0.39985000
   129  H          0.02240000       0.42970000       0.64090000
   130  H          0.97760000       0.57030000       0.35910000
   131  H          0.94000000       0.35170000       0.57060000
   132  H          0.06000000       0.64830000       0.42940000
   133  H          0.09090000       0.35990000       0.54460000
   134  H          0.90910000       0.64010000       0.45540000
   135  C          0.04714000       0.10484000       0.58494000
   136  C          0.95286000       0.89516000       0.41506000
   137  H          0.06330000       0.01840000       0.61590000
   138  H          0.93670000       0.98160000       0.38410000
   139  H          0.11180000       0.12010000       0.52900000
   140  H          0.88820000       0.87990000       0.47100000
   141  H          0.96120000       0.11390000       0.55760000
   142  H          0.03880000       0.88610000       0.44240000
