data_RIHGIY
_symmetry_space_group_name_H-M    'P1'
_symmetry_Int_Tables_number       1
loop_
_symmetry_equiv_pos_site_id
_symmetry_equiv_pos_as_xyz
1 x,y,z
_cell_length_a                   7.3842
_cell_length_b                   7.4852
_cell_length_c                   11.8853
_cell_angle_alpha                100.012
_cell_angle_beta                 92.572
_cell_angle_gamma                109.822
loop_
_atom_site_label
_atom_site_type_symbol
_atom_site_fract_x
_atom_site_fract_y
_atom_site_fract_z
     1  C          0.54302000       0.95732000       0.83009000
     2  C          0.45698000       0.04268000       0.16991000
     3  C          0.52142000       0.06732000       0.75199000
     4  C          0.47858000       0.93268000       0.24801000
     5  C          0.41132000      -0.02248000       0.64789000
     6  C          0.58868000       0.02248000       0.35211000
     7  C          0.32552000       0.77902000       0.62059000
     8  C          0.67448000       0.22098000       0.37941000
     9  C          0.34782000       0.67022000       0.69949000
    10  C          0.65218000       0.32978000       0.30051000
    11  C          0.45552000       0.75642000       0.80669000
    12  C          0.54448000       0.24358000       0.19331000
    13  C          0.47532000       0.64442000       0.88899000
    14  C          0.52468000       0.35558000       0.11101000
    15  C          0.49102000       0.55312000       0.95949000
    16  C          0.50898000       0.44688000       0.04051000
    17  F          0.65141000       0.04751000       0.93029000
    18  F          0.34859000       0.95249000       0.06971000
    19  F          0.60731000       0.26041000       0.77669000
    20  F          0.39269000       0.73959000       0.22331000
    21  F          0.38891000       0.08441000       0.57239000
    22  F          0.61109000       0.91559000       0.42761000
    23  F          0.22121000       0.69201000       0.51839000
    24  F          0.77879000       0.30799000       0.48161000
    25  F          0.26201000       0.47751000       0.67129000
    26  F          0.73799000       0.52249000       0.32871000
    27  C          0.04992000      -0.02148000       0.84751000
    28  C          0.95008000       0.02148000       0.15249000
    29  C          0.03452000       0.09422000       0.77061000
    30  C          0.96548000       0.90578000       0.22939000
    31  C          0.93928000       0.01012000       0.66101000
    32  C          0.06072000      -0.01012000       0.33899000
    33  C          0.85828000       0.81002000       0.62771000
    34  C          0.14172000       0.18998000       0.37229000
    35  C          0.87078000       0.69272000       0.70411000
    36  C          0.12922000       0.30728000       0.29589000
    37  C          0.96718000       0.77672000       0.81511000
    38  C          0.03282000       0.22328000       0.18489000
    39  C         -0.01882000       0.65622000       0.89441000
    40  C          0.01882000       0.34378000       0.10559000
    41  C         -0.00722000       0.55682000       0.96141000
    42  C          0.00722000       0.44318000       0.03859000
    43  H          0.11172100       0.03761900       0.92091200
    44  H          0.88827900       0.96238100       0.07908800
    45  H          0.09052200       0.23422200       0.79861200
    46  H          0.90947800       0.76577800       0.20138800
    47  H          0.93707700       0.09552200       0.61351300
    48  H          0.06292300       0.90447800       0.38648700
    49  H          0.79517900       0.75452000       0.55271200
    50  H          0.20482100       0.24548000       0.44728800
    51  H          0.81727800       0.55722200       0.68241200
    52  H          0.18272200       0.44277800       0.31758800
