data_RILRAH
_symmetry_space_group_name_H-M    'P1'
_symmetry_Int_Tables_number       1
loop_
_symmetry_equiv_pos_site_id
_symmetry_equiv_pos_as_xyz
1 x,y,z
_cell_length_a                   18.76828
_cell_length_b                   5.00272
_cell_length_c                   21.21221
_cell_angle_alpha                90.0
_cell_angle_beta                 101.9904
_cell_angle_gamma                90.0
loop_
_atom_site_label
_atom_site_type_symbol
_atom_site_fract_x
_atom_site_fract_y
_atom_site_fract_z
     1  S          0.57238300       0.85320100       0.88754300
     2  S          0.42761700       0.85320100       0.11245700
     3  S          0.07238300       0.35320100       0.88754300
     4  S          0.92761700       0.35320100       0.11245700
     5  O          0.88602800       0.66234000       0.90275900
     6  O          0.11397200       0.66234000       0.09724100
     7  O          0.38602800       0.16234000       0.90275900
     8  O          0.61397200       0.16234000       0.09724100
     9  O          0.73560800       0.18253000       0.78231800
    10  O          0.26439200       0.18253000       0.21768200
    11  O          0.23560800       0.68253000       0.78231800
    12  O          0.76439200       0.68253000       0.21768200
    13  O          0.85187800       0.27523000       0.82377800
    14  O          0.14812200       0.27523000       0.17622200
    15  O          0.35187800       0.77523000       0.82377800
    16  O          0.64812200       0.77523000       0.17622200
    17  O          0.55039900       0.01304000       0.82910900
    18  O          0.44960100       0.01304000       0.17089100
    19  O          0.05039900       0.51304000       0.82910900
    20  O          0.94960100       0.51304000       0.17089100
    21  O          0.53507900       0.60184000       0.88215100
    22  O          0.46492100       0.60184000       0.11784900
    23  O          0.03507900       0.10184000       0.88215100
    24  O          0.96492100       0.10184000       0.11784900
    25  O          0.56776100      -0.00195000       0.94496900
    26  O          0.43223900      -0.00195000       0.05503100
    27  O          0.06776100       0.49805000       0.94496900
    28  O          0.93223900       0.49805000       0.05503100
    29  C          0.76141120       0.53304000       0.85860110
    30  C          0.23858880       0.53304000       0.14139890
    31  C          0.26141120       0.03304000       0.85860110
    32  C          0.73858880       0.03304000       0.14139890
    33  C          0.81332120       0.69604000       0.89824100
    34  C          0.18667880       0.69604000       0.10175900
    35  C          0.31332120       0.19604000       0.89824100
    36  C          0.68667880       0.19604000       0.10175900
    37  C          0.79130120       0.89854000       0.93500110
    38  C          0.20869880       0.89854000       0.06499890
    39  C          0.29130120       0.39854000       0.93500110
    40  C          0.70869880       0.39854000       0.06499890
    41  C          0.71836120       0.94235000       0.93189110
    42  C          0.28163880       0.94235000       0.06810890
    43  C          0.21836120       0.44235000       0.93189110
    44  C          0.78163880       0.44235000       0.06810890
    45  C          0.66613120       0.78204000       0.89291100
    46  C          0.33386880       0.78204000       0.10708900
    47  C          0.16613120       0.28204000       0.89291100
    48  C          0.83386880       0.28204000       0.10708900
    49  C          0.68730110       0.57884000       0.85716100
    50  C          0.31269890       0.57884000       0.14283900
    51  C          0.18730110       0.07884000       0.85716100
    52  C          0.81269890       0.07884000       0.14283900
    53  C          0.78613110       0.31964000       0.81982100
    54  C          0.21386890       0.31964000       0.18017900
    55  C          0.28613110       0.81964000       0.81982100
    56  C          0.71386890       0.81964000       0.18017900
    57  H          0.89281500       0.53660000       0.87621400
    58  H          0.10718500       0.53660000       0.12378600
    59  H          0.39281500       0.03660000       0.87621400
    60  H          0.60718500       0.03660000       0.12378600
    61  H          0.82590000       0.00390000       0.96160000
    62  H          0.17410000       0.00390000       0.03840000
    63  H          0.32590000       0.50390000       0.96160000
    64  H          0.67410000       0.50390000       0.03840000
    65  H          0.70370000       0.07950000       0.95590000
    66  H          0.29630000       0.07950000       0.04410000
    67  H          0.20370000       0.57950000       0.95590000
    68  H          0.79630000       0.57950000       0.04410000
    69  H          0.65230000       0.47090000       0.83190000
    70  H          0.34770000       0.47090000       0.16810000
    71  H          0.15230000       0.97090000       0.83190000
    72  H          0.84770000       0.97090000       0.16810000
    73  H          0.75131600       0.04970000       0.75861600
    74  H          0.24868400       0.04970000       0.24138400
    75  H          0.25131600       0.54970000       0.75861600
    76  H          0.74868400       0.54970000       0.24138400
    77  S          0.95259300       0.10714900       0.62625300
    78  S          0.04740700       0.10714900       0.37374700
    79  S          0.45259300       0.60714900       0.62625300
    80  S          0.54740700       0.60714900       0.37374700
    81  O          0.63906800       0.36776000       0.58388800
    82  O          0.36093200       0.36776000       0.41611200
    83  O          0.13906800       0.86776000       0.58388800
    84  O          0.86093200       0.86776000       0.41611200
    85  O          0.78318800       0.79847000       0.72237700
    86  O          0.21681200       0.79847000       0.27762300
    87  O          0.28318800       0.29847000       0.72237700
    88  O          0.71681200       0.29847000       0.27762300
    89  O          0.66852800       0.70897000       0.67398800
    90  O          0.33147200       0.70897000       0.32601200
    91  O          0.16852800       0.20897000       0.67398800
    92  O          0.83147200       0.20897000       0.32601200
    93  O          0.98105900       0.22987000       0.57438800
    94  O          0.01894100       0.22987000       0.42561200
    95  O          0.48105900       0.72987000       0.57438800
    96  O          0.51894100       0.72987000       0.42561200
    97  O          0.95508800       0.81687000       0.62381700
    98  O          0.04491200       0.81687000       0.37618300
    99  O          0.45508800       0.31687000       0.62381700
   100  O          0.54491200       0.31687000       0.37618300
   101  O          0.98664800       0.20797000       0.68988800
   102  O          0.01335200       0.20797000       0.31011200
   103  O          0.48664800       0.70797000       0.68988800
   104  O          0.51335200       0.70797000       0.31011200
   105  C          0.76202110       0.45526000       0.64253110
   106  C          0.23797890       0.45526000       0.35746890
   107  C          0.26202110       0.95526000       0.64253110
   108  C          0.73797890       0.95526000       0.35746890
   109  C          0.71172110       0.31286000       0.59609100
   110  C          0.28827890       0.31286000       0.40390900
   111  C          0.21172110       0.81286000       0.59609100
   112  C          0.78827890       0.81286000       0.40390900
   113  C          0.73507120       0.10915000       0.56095110
   114  C          0.26492880       0.10915000       0.43904890
   115  C          0.23507120       0.60915000       0.56095110
   116  C          0.76492880       0.60915000       0.43904890
   117  C          0.80832120       0.04826000       0.57040110
   118  C          0.19167880       0.04826000       0.42959890
   119  C          0.30832120       0.54826000       0.57040110
   120  C          0.69167880       0.54826000       0.42959890
   121  C          0.85886110       0.18896000       0.61511100
   122  C          0.14113890       0.18896000       0.38488900
   123  C          0.35886110       0.68896000       0.61511100
   124  C          0.64113890       0.68896000       0.38488900
   125  C          0.83560110       0.39106000       0.65088100
   126  C          0.16439890       0.39106000       0.34911900
   127  C          0.33560110       0.89106000       0.65088100
   128  C          0.66439890       0.89106000       0.34911900
   129  C          0.73660120       0.66926000       0.68218100
   130  C          0.26339880       0.66926000       0.31781900
   131  C          0.23660120       0.16926000       0.68218100
   132  C          0.76339880       0.16926000       0.31781900
   133  H          0.63701300       0.49350000       0.60651200
   134  H          0.36298700       0.49350000       0.39348800
   135  H          0.13701300      -0.00650000       0.60651200
   136  H          0.86298700      -0.00650000       0.39348800
   137  H          0.70140000       0.01350000       0.53100000
   138  H          0.29860000       0.01350000       0.46900000
   139  H          0.20140000       0.51350000       0.53100000
   140  H          0.79860000       0.51350000       0.46900000
   141  H          0.82380000       0.91200000       0.54660000
   142  H          0.17620000       0.91200000       0.45340000
   143  H          0.32380000       0.41200000       0.54660000
   144  H          0.67620000       0.41200000       0.45340000
   145  H          0.86960000       0.48500000       0.68090000
   146  H          0.13040000       0.48500000       0.31910000
   147  H          0.36960000      -0.01500000       0.68090000
   148  H          0.63040000      -0.01500000       0.31910000
   149  N          0.93692100       0.87506000       0.78033900
   150  N          0.06307900       0.87506000       0.21966100
   151  N          0.43692100       0.37506000       0.78033900
   152  N          0.56307900       0.37506000       0.21966100
   153  H          0.95760000      -0.01030000       0.75620000
   154  H          0.04240000      -0.01030000       0.24380000
   155  H          0.45760000       0.48970000       0.75620000
   156  H          0.54240000       0.48970000       0.24380000
   157  H          0.96770000       0.74280000       0.79650000
   158  H          0.03230000       0.74280000       0.20350000
   159  H          0.46770000       0.24280000       0.79650000
   160  H          0.53230000       0.24280000       0.20350000
   161  H          0.89030000       0.79650000       0.76240000
   162  H          0.10970000       0.79650000       0.23760000
   163  H          0.39030000       0.29650000       0.76240000
   164  H          0.60970000       0.29650000       0.23760000
   165  H          0.93010000       0.96260000       0.81210000
   166  H          0.06990000       0.96260000       0.18790000
   167  H          0.43010000       0.46260000       0.81210000
   168  H          0.56990000       0.46260000       0.18790000
   169  N          0.58715900       0.13164000       0.70855900
   170  N          0.41284100       0.13164000       0.29144100
   171  N          0.08715900       0.63164000       0.70855900
   172  N          0.91284100       0.63164000       0.29144100
   173  H          0.57660000       0.07340000       0.74860000
   174  H          0.42340000       0.07340000       0.25140000
   175  H          0.07660000       0.57340000       0.74860000
   176  H          0.92340000       0.57340000       0.25140000
   177  H          0.61630000       0.29430000       0.71460000
   178  H          0.38370000       0.29430000       0.28540000
   179  H          0.11630000       0.79430000       0.71460000
   180  H          0.88370000       0.79430000       0.28540000
   181  H          0.61260000       0.00450000       0.69680000
   182  H          0.38740000       0.00450000       0.30320000
   183  H          0.11260000       0.50450000       0.69680000
   184  H          0.88740000       0.50450000       0.30320000
   185  H          0.54010000       0.14480000       0.68010000
   186  H          0.45990000       0.14480000       0.31990000
   187  H          0.04010000       0.64480000       0.68010000
   188  H          0.95990000       0.64480000       0.31990000
   189  N          0.50000000       0.18845000       0.50000000
   190  N          0.00000000       0.68845000       0.50000000
   191  H          0.53500000       0.30590000       0.51290000
   192  H          0.46500000       0.30590000       0.48710000
   193  H          0.03500000       0.80590000       0.51290000
   194  H          0.96500000       0.80590000       0.48710000
   195  H          0.50980000       0.07050000       0.46590000
   196  H          0.49020000       0.07050000       0.53410000
   197  H          0.00980000       0.57050000       0.46590000
   198  H          0.99020000       0.57050000       0.53410000
   199  N          0.00000000       0.90296000      -0.00000000
   200  N          0.50000000       0.40296000      -0.00000000
   201  H          0.96300000       0.81290000       0.98120000
   202  H          0.03700000       0.81290000       0.01880000
   203  H          0.46300000       0.31290000       0.98120000
   204  H          0.53700000       0.31290000       0.01880000
   205  H          0.98700000       0.00450000       0.02500000
   206  H          0.01300000       0.00450000       0.97500000
   207  H          0.48700000       0.50450000       0.02500000
   208  H          0.51300000       0.50450000       0.97500000
