data_RILVIR
_symmetry_space_group_name_H-M    'P1'
_symmetry_Int_Tables_number       1
loop_
_symmetry_equiv_pos_site_id
_symmetry_equiv_pos_as_xyz
1 x,y,z
_cell_length_a                   7.38008
_cell_length_b                   7.84598
_cell_length_c                   21.1462
_cell_angle_alpha                95.2828
_cell_angle_beta                 98.7096
_cell_angle_gamma                93.4878
loop_
_atom_site_label
_atom_site_type_symbol
_atom_site_fract_x
_atom_site_fract_y
_atom_site_fract_z
     1  N          0.73153000       0.12713000       0.27337110
     2  N          0.26847000       0.87287000       0.72662890
     3  H          0.65694600       0.12984200       0.30031600
     4  H          0.34305400       0.87015800       0.69968400
     5  S          0.83150900       0.31386800       0.26239300
     6  S          0.16849100       0.68613200       0.73760700
     7  O         -0.01297000       0.28573000       0.23119100
     8  O          0.01297000       0.71427000       0.76880900
     9  O          0.85483000       0.40913000       0.32424900
    10  O          0.14517000       0.59087000       0.67575100
    11  S          0.69375900       0.94988200       0.22335300
    12  S          0.30624100       0.05011800       0.77664700
    13  O          0.85453000       0.92137000       0.19536900
    14  O          0.14547000       0.07863000       0.80463100
    15  O          0.62213000       0.82628000       0.26048900
    16  O          0.37787000       0.17372000       0.73951100
    17  C          0.66674000       0.40833000       0.20938130
    18  C          0.33326000       0.59167000       0.79061870
    19  C          0.71844000       0.47793000       0.15630130
    20  C          0.28156000       0.52207000       0.84369870
    21  H          0.84190000       0.47690000       0.14860000
    22  H          0.15810000       0.52310000       0.85140000
    23  C          0.58694000       0.54923000       0.11458130
    24  C          0.41306000       0.45077000       0.88541870
    25  H          0.62040000       0.59940000       0.07840000
    26  H          0.37960000       0.40060000       0.92160000
    27  C          0.40614000       0.54673000       0.12592120
    28  C          0.59386000       0.45327000       0.87407880
    29  C          0.35694000       0.47853000       0.18002130
    30  C          0.64306000       0.52147000       0.81997870
    31  H          0.23360000       0.47960000       0.18790000
    32  H          0.76640000       0.52040000       0.81210000
    33  C          0.48664000       0.40953000       0.22219130
    34  C          0.51336000       0.59047000       0.77780870
    35  H          0.45420000       0.36360000       0.25930000
    36  H          0.54580000       0.63640000       0.74070000
    37  C          0.51604000      -0.00293000       0.16314120
    38  C          0.48396000       0.00293000       0.83685880
    39  C          0.33524000      -0.01403000       0.17462130
    40  C          0.66476000       0.01403000       0.82537870
    41  H          0.30520000       0.93970000       0.21200000
    42  H          0.69480000       0.06030000       0.78800000
    43  C          0.19964000       0.04353000       0.13071130
    44  C          0.80036000       0.95647000       0.86928870
    45  H          0.07510000       0.03550000       0.13750000
    46  H          0.92490000       0.96450000       0.86250000
    47  C          0.24594000       0.11293000       0.07677120
    48  C          0.75406000       0.88707000       0.92322880
    49  C          0.42724000       0.11903000       0.06500130
    50  C          0.57276000       0.88097000       0.93499870
    51  H          0.45710000       0.16390000       0.02730000
    52  H          0.54290000       0.83610000       0.97270000
    53  C          0.56294000       0.05983000       0.10792120
    54  C          0.43706000       0.94017000       0.89207880
    55  H          0.68620000       0.06190000       0.09990000
    56  H          0.31380000       0.93810000       0.90010000
    57  C          0.26314000       0.61583000       0.07993130
    58  C          0.73686000       0.38417000       0.92006870
    59  O          0.31323000       0.68423000       0.03239900
    60  O          0.68677000       0.31577000       0.96760100
    61  O          0.09813000       0.60183000       0.08937100
    62  O          0.90187000       0.39817000       0.91062900
    63  C          0.10324000       0.18683000       0.03215120
    64  C          0.89676000       0.81317000       0.96784880
    65  O          0.15383000       0.26083000       0.98587900
    66  O          0.84617000       0.73917000       0.01412100
    67  O          0.93827000       0.17613000       0.04230100
    68  O          0.06173000       0.82387000       0.95769900
    69  O          0.77363000       0.79117000       0.50438120
    70  O          0.22637000       0.20883000       0.49561880
    71  C          0.72005000       0.62166000       0.47105190
    72  C          0.27995000       0.37834000       0.52894810
    73  H          0.65170000       0.55320000       0.49810000
    74  H          0.34830000       0.44680000       0.50190000
    75  H          0.83180000       0.56320000       0.46440000
    76  H          0.16820000       0.43680000       0.53560000
    77  C          0.60435000       0.62935000       0.40843190
    78  C          0.39565000       0.37065000       0.59156810
    79  H          0.66700000       0.70690000       0.38280000
    80  H          0.33300000       0.29310000       0.61720000
    81  H          0.58510000       0.51360000       0.38450000
    82  H          0.41490000       0.48640000       0.61550000
    83  O          0.43383000       0.68947000       0.41715110
    84  O          0.56617000       0.31053000       0.58284890
    85  C          0.30785000       0.68475000       0.35771150
    86  C          0.69215000       0.31525000       0.64228850
    87  H          0.27120000       0.56400000       0.34050000
    88  H          0.72880000       0.43600000       0.65950000
    89  H          0.36970000       0.74030000       0.32570000
    90  H          0.63030000       0.25970000       0.67430000
    91  C          0.14415000       0.77315000       0.36756170
    92  C          0.85585000       0.22685000       0.63243830
    93  H          0.05420000       0.75870000       0.32730000
    94  H          0.94580000       0.24130000       0.67270000
    95  H          0.08600000       0.72250000       0.40140000
    96  H          0.91400000       0.27750000       0.59860000
    97  O          0.19243000       0.94807000       0.38584110
    98  O          0.80757000       0.05193000       0.61415890
    99  C          0.04664000       0.03955000       0.40823170
   100  C          0.95336000       0.96045000       0.59176830
   101  H         -0.00450000       0.97560000       0.44060000
   102  H          0.00450000       0.02440000       0.55940000
   103  H          0.94690000       0.04530000       0.37170000
   104  H          0.05310000       0.95470000       0.62830000
   105  C          0.88975000       0.78655000       0.56319180
   106  C          0.11025000       0.21345000       0.43680820
   107  H          0.82250000       0.72730000       0.59300000
   108  H          0.17750000       0.27270000       0.40700000
   109  H         -0.00330000       0.72130000       0.55610000
   110  H          0.00330000       0.27870000       0.44390000
   111  O          0.49613000       0.15433000       0.35748110
   112  O          0.50387000       0.84567000       0.64251890
   113  H          0.55135800       0.14406100       0.39141400
   114  H          0.44864200       0.85593900       0.60858600
   115  H          0.41345000       0.08485100       0.35472400
   116  H          0.58655000       0.91514900       0.64527600
   117  O          0.67573000       0.13103000       0.47496110
   118  O          0.32427000       0.86897000       0.52503890
   119  H          0.69486200       0.03473400       0.47912200
   120  H          0.30513800       0.96526600       0.52087800
   121  H          0.64045900       0.17945300       0.50411600
   122  H          0.35954100       0.82054700       0.49588400
