data_RINQOY01
_symmetry_space_group_name_H-M    'P1'
_symmetry_Int_Tables_number       1
loop_
_symmetry_equiv_pos_site_id
_symmetry_equiv_pos_as_xyz
1 x,y,z
_cell_length_a                   13.71042
_cell_length_b                   7.579901
_cell_length_c                   18.81682
_cell_angle_alpha                90.0
_cell_angle_beta                 90.0
_cell_angle_gamma                90.0
loop_
_atom_site_label
_atom_site_type_symbol
_atom_site_fract_x
_atom_site_fract_y
_atom_site_fract_z
     1  I          0.88047300       0.41868700       0.56955300
     2  I          0.11952700       0.58131300       0.06955300
     3  I          0.38047300       0.58131300       0.56955300
     4  I          0.61952700       0.41868700       0.06955300
     5  O          0.96415000       0.26918000       0.62084000
     6  O          0.03585000       0.73082000       0.12084000
     7  O          0.46415000       0.73082000       0.62084000
     8  O          0.53585000       0.26918000       0.12084000
     9  H          0.01647200       0.25603300       0.59819800
    10  H          0.98352800       0.74396700       0.09819800
    11  H          0.51647200       0.74396700       0.59819800
    12  H          0.48352800       0.25603300       0.09819800
    13  O          0.83466000       0.52451100       0.64735000
    14  O          0.16534000       0.47548900       0.14735000
    15  O          0.33466000       0.47548900       0.64735000
    16  O          0.66534000       0.52451100       0.14735000
    17  O          0.79015000       0.25269000       0.55053000
    18  O          0.20985000       0.74731000       0.05053000
    19  O          0.29015000       0.74731000       0.55053000
    20  O          0.70985000       0.25269000       0.05053000
    21  I          0.84287400       0.71119600       0.97805300
    22  I          0.15712600       0.28880400       0.47805300
    23  I          0.34287400       0.28880400       0.97805300
    24  I          0.65712600       0.71119600       0.47805300
    25  O          0.87094000       0.79638000       0.06594000
    26  O          0.12906000       0.20362000       0.56594000
    27  O          0.37094000       0.20362000       0.06594000
    28  O          0.62906000       0.79638000       0.56594000
    29  O          0.71774000       0.63818000      -0.00727000
    30  O          0.28226000       0.36182000       0.49273000
    31  O          0.21774000       0.36182000      -0.00727000
    32  O          0.78226000       0.63818000       0.49273000
    33  O          0.81755000       0.92108000       0.93764000
    34  O          0.18245000       0.07892000       0.43764000
    35  O          0.31755000       0.07892000       0.93764000
    36  O          0.68245000       0.92108000       0.43764000
    37  I          0.59501400       0.21059700       0.52161300
    38  I          0.40498600       0.78940300       0.02161300
    39  I          0.09501400       0.78940300       0.52161300
    40  I          0.90498600       0.21059700       0.02161300
    41  O          0.56985000       0.42228000       0.56214000
    42  O          0.43015000       0.57772000       0.06214000
    43  O          0.06985000       0.57772000       0.56214000
    44  O          0.93015000       0.42228000       0.06214000
    45  O          0.62495000       0.29378000       0.43444000
    46  O          0.37505000       0.70622000       0.93444000
    47  O          0.12495000       0.70622000       0.43444000
    48  O          0.87505000       0.29378000       0.93444000
    49  O          0.46964000       0.13898000       0.50723000
    50  O          0.53036000       0.86102000       0.00723000
    51  O          0.96964000       0.86102000       0.50723000
    52  O          0.03036000       0.13898000       0.00723000
    53  I          0.62797400       0.07872700       0.93063300
    54  I          0.37202600       0.92127300       0.43063300
    55  I          0.12797400       0.92127300       0.93063300
    56  I          0.87202600       0.07872700       0.43063300
    57  O          0.71185000       0.22818000       0.87894000
    58  O          0.28815000       0.77182000       0.37894000
    59  O          0.21185000       0.77182000       0.87894000
    60  O          0.78815000       0.22818000       0.37894000
    61  H          0.76409200       0.24164900       0.90152100
    62  H          0.23590800       0.75835100       0.40152100
    63  H          0.26409200       0.75835100       0.90152100
    64  H          0.73590800       0.24164900       0.40152100
    65  O          0.58066000       0.97288900       0.85286000
    66  O          0.41934000       0.02711100       0.35286000
    67  O          0.08066000       0.02711100       0.85286000
    68  O          0.91934000       0.97288900       0.35286000
    69  O          0.53815000       0.24579000       0.94923000
    70  O          0.46185000       0.75421000       0.44923000
    71  O          0.03815000       0.75421000       0.94923000
    72  O          0.96185000       0.24579000       0.44923000
    73  O          0.55135000       0.10559000       0.66584000
    74  O          0.44865000       0.89441000       0.16584000
    75  O          0.05135000       0.89441000       0.66584000
    76  O          0.94865000       0.10559000       0.16584000
    77  C          0.46767000       0.07871100       0.68525000
    78  C          0.53233000       0.92128900       0.18525000
    79  C          0.96767000       0.92128900       0.68525000
    80  C          0.03233000       0.07871100       0.18525000
    81  C          0.29547000       0.05821300       0.66185000
    82  C          0.70453000       0.94178700       0.16185000
    83  C          0.79547000       0.94178700       0.66185000
    84  C          0.20453000       0.05821300       0.16185000
    85  H          0.24342100       0.06726000       0.62866400
    86  H          0.75657900       0.93274000       0.12866400
    87  H          0.74342100       0.93274000       0.62866400
    88  H          0.25657900       0.06726000       0.12866400
    89  C          0.27738000       0.01041400       0.73271000
    90  C          0.72262000      -0.01041400       0.23271000
    91  C          0.77738000      -0.01041400       0.73271000
    92  C          0.22262000       0.01041400       0.23271000
    93  H          0.21338200      -0.01308400       0.74972100
    94  H          0.78661800       0.01308400       0.24972100
    95  H          0.71338200       0.01308400       0.74972100
    96  H          0.28661800      -0.01308400       0.24972100
    97  C          0.35341000       0.00041200       0.77321000
    98  C          0.64659000      -0.00041200       0.27321000
    99  C          0.85341000      -0.00041200       0.77321000
   100  C          0.14659000       0.00041200       0.27321000
   101  H          0.34194000       0.96335200       0.82074900
   102  H          0.65806000       0.03664800       0.32074900
   103  H          0.84194000       0.03664800       0.82074900
   104  H          0.15806000       0.96335200       0.32074900
   105  N          0.38815000       0.09111100       0.64185000
   106  N          0.61185000       0.90888900       0.14185000
   107  N          0.88815000       0.90888900       0.64185000
   108  N          0.11185000       0.09111100       0.14185000
   109  H          0.39806100       0.12301100       0.59745700
   110  H          0.60193900       0.87698900       0.09745700
   111  H          0.89806100       0.87698900       0.59745700
   112  H          0.10193900       0.12301100       0.09745700
   113  N          0.44497000       0.03511400       0.75686000
   114  N          0.55503000       0.96488600       0.25686000
   115  N          0.94497000       0.96488600       0.75686000
   116  N          0.05503000       0.03511400       0.25686000
   117  H          0.49085300       0.03144200       0.78935200
   118  H          0.50914700       0.96855800       0.28935200
   119  H         -0.00914700       0.96855800       0.78935200
   120  H          0.00914700       0.03144200       0.28935200
   121  O          0.80084000       0.59619000       0.83314000
   122  O          0.19916000       0.40381000       0.33314000
   123  O          0.30084000       0.40381000       0.83314000
   124  O          0.69916000       0.59619000       0.33314000
   125  C          0.71707000       0.57251100       0.81345000
   126  C          0.28293000       0.42748900       0.31345000
   127  C          0.21707000       0.42748900       0.81345000
   128  C          0.78293000       0.57251100       0.31345000
   129  C          0.59991000       0.49971200       0.71891000
   130  C          0.40009000       0.50028800       0.21891000
   131  C          0.09991000       0.50028800       0.71891000
   132  C          0.90009000       0.49971200       0.21891000
   133  H          0.58853300       0.47456000       0.67018200
   134  H          0.41146700       0.52544000       0.17018200
   135  H          0.08853300       0.52544000       0.67018200
   136  H          0.91146700       0.47456000       0.17018200
   137  C          0.52228000       0.51491400       0.77069000
   138  C          0.47772000       0.48508600       0.27069000
   139  C          0.02228000       0.48508600       0.77069000
   140  C          0.97772000       0.51491400       0.27069000
   141  H          0.45658400       0.49212900       0.75728200
   142  H          0.54341600       0.50787100       0.25728200
   143  H          0.95658400       0.50787100       0.75728200
   144  H          0.04341600       0.49212900       0.25728200
   145  C          0.54417000       0.56191400       0.83796000
   146  C          0.45583000       0.43808600       0.33796000
   147  C          0.04417000       0.43808600       0.83796000
   148  C          0.95583000       0.56191400       0.33796000
   149  H          0.49293300       0.57691700       0.87139400
   150  H          0.50706700       0.42308300       0.37139400
   151  H         -0.00706700       0.42308300       0.87139400
   152  H          0.00706700       0.57691700       0.37139400
   153  N          0.69167000       0.52491100       0.74676000
   154  N          0.30833000       0.47508900       0.24676000
   155  N          0.19167000       0.47508900       0.74676000
   156  N          0.80833000       0.52491100       0.24676000
   157  H          0.74026500       0.50780700       0.71703600
   158  H          0.25973500       0.49219300       0.21703600
   159  H          0.24026500       0.49219300       0.71703600
   160  H          0.75973500       0.50780700       0.21703600
   161  N          0.63705000       0.58791100       0.85875000
   162  N          0.36295000       0.41208900       0.35875000
   163  N          0.13705000       0.41208900       0.85875000
   164  N          0.86295000       0.58791100       0.35875000
   165  H          0.64785400       0.61629400       0.90333200
   166  H          0.35214600       0.38370600       0.40333200
   167  H          0.14785400       0.38370600       0.90333200
   168  H          0.85214600       0.61629400       0.40333200
