data_RINQOY
_symmetry_space_group_name_H-M    'P1'
_symmetry_Int_Tables_number       1
loop_
_symmetry_equiv_pos_site_id
_symmetry_equiv_pos_as_xyz
1 x,y,z
_cell_length_a                   8.86072
_cell_length_b                   12.42372
_cell_length_c                   8.93002
_cell_angle_alpha                90.0
_cell_angle_beta                 106.5902
_cell_angle_gamma                90.0
loop_
_atom_site_label
_atom_site_type_symbol
_atom_site_fract_x
_atom_site_fract_y
_atom_site_fract_z
     1  I          0.73761400       0.73431300       0.19019500
     2  I          0.23761400       0.26568700       0.19019500
     3  I          0.23761400       0.23431300       0.69019500
     4  I          0.73761400       0.76568700       0.69019500
     5  O          0.75116000       0.71204000      -0.00556000
     6  O          0.25116000       0.28796000      -0.00556000
     7  O          0.25116000       0.21204000       0.49444000
     8  O          0.75116000       0.78796000       0.49444000
     9  O          0.60886000       0.62294000       0.19816000
    10  O          0.10886000       0.37706000       0.19816000
    11  O          0.10886000       0.12294000       0.69816000
    12  O          0.60886000       0.87706000       0.69816000
    13  O          0.59395000       0.84284000       0.14736000
    14  O          0.09395000       0.15716000       0.14736000
    15  O          0.09395000       0.34284000       0.64736000
    16  O          0.59395000       0.65716000       0.64736000
    17  I          0.58422400       0.49540300       0.40497400
    18  I          0.08422400       0.50459700       0.40497400
    19  I          0.08422400      -0.00459700       0.90497400
    20  I          0.58422400       0.00459700       0.90497400
    21  O          0.78766000       0.46424000       0.43386000
    22  O          0.28766000       0.53576000       0.43386000
    23  O          0.28766000       0.96424000       0.93386000
    24  O          0.78766000       0.03576000       0.93386000
    25  O          0.49375000       0.40564000       0.24916000
    26  O         -0.00625000       0.59436000       0.24916000
    27  O         -0.00625000       0.90564000       0.74916000
    28  O          0.49375000       0.09436000       0.74916000
    29  O          0.57196000       0.40404000       0.57326000
    30  O          0.07196000       0.59596000       0.57326000
    31  O          0.07196000       0.90404000       0.07326000
    32  O          0.57196000       0.09596000       0.07326000
    33  H          0.51663300       0.43378200       0.62361100
    34  H          0.01663300       0.56621800       0.62361100
    35  H          0.01663300       0.93378200       0.12361100
    36  H          0.51663300       0.06621800       0.12361100
    37  N          0.27628000       0.50404000       0.94202000
    38  N          0.77628000       0.49596000       0.94202000
    39  N          0.77628000       0.00404000       0.44202000
    40  N          0.27628000      -0.00404000       0.44202000
    41  H          0.25826500       0.43712600       0.96454600
    42  H          0.75826500       0.56287400       0.96454600
    43  H          0.75826500       0.93712600       0.46454600
    44  H          0.25826500       0.06287400       0.46454600
    45  C          0.36589000       0.52156000       0.84131000
    46  C          0.86589000       0.47844000       0.84131000
    47  C          0.86589000       0.02156000       0.34131000
    48  C          0.36589000       0.97844000       0.34131000
    49  C          0.33319000       0.70866000       0.87902000
    50  C          0.83319000       0.29134000       0.87902000
    51  C          0.83319000       0.20866000       0.37902000
    52  C          0.33319000       0.79134000       0.37902000
    53  H          0.35664300       0.78072800       0.85868100
    54  H          0.85664300       0.21927200       0.85868100
    55  H          0.85664300       0.28072800       0.35868100
    56  H          0.35664300       0.71927200       0.35868100
    57  C          0.23728000       0.68936000       0.97521000
    58  C          0.73728000       0.31064000       0.97521000
    59  C          0.73728000       0.18936000       0.47521000
    60  C          0.23728000       0.81064000       0.47521000
    61  H          0.18967800       0.74641500       0.01618700
    62  H          0.68967800       0.25358500       0.01618700
    63  H          0.68967800       0.24641500       0.51618700
    64  H          0.18967800       0.75358500       0.51618700
    65  C          0.21488000       0.58366000       0.00808000
    66  C          0.71488000       0.41634000       0.00808000
    67  C          0.71488000       0.08366000       0.50808000
    68  C          0.21488000       0.91634000       0.50808000
    69  H          0.15524500       0.56661600       0.07802800
    70  H          0.65524500       0.43338400       0.07802800
    71  H          0.65524500       0.06661600       0.57802800
    72  H          0.15524500       0.93338400       0.57802800
    73  O          0.41736000       0.44664000       0.78094000
    74  O          0.91736000       0.55336000       0.78094000
    75  O          0.91736000       0.94664000       0.28094000
    76  O          0.41736000       0.05336000       0.28094000
    77  N          0.39247000       0.62865000       0.81502000
    78  N          0.89247000       0.37135000       0.81502000
    79  N          0.89247000       0.12865000       0.31502000
    80  N          0.39247000       0.87135000       0.31502000
    81  H          0.45112700       0.64438000       0.75355200
    82  H          0.95112700       0.35562000       0.75355200
    83  H          0.95112700       0.14438000       0.25355200
    84  H          0.45112700       0.85562000       0.25355200
