data_RIPDAW
_symmetry_space_group_name_H-M    'P1'
_symmetry_Int_Tables_number       1
loop_
_symmetry_equiv_pos_site_id
_symmetry_equiv_pos_as_xyz
1 x,y,z
_cell_length_a                   10.39321
_cell_length_b                   11.870111
_cell_length_c                   12.182212
_cell_angle_alpha                99.0172
_cell_angle_beta                 98.0961
_cell_angle_gamma                113.3521
loop_
_atom_site_label
_atom_site_type_symbol
_atom_site_fract_x
_atom_site_fract_y
_atom_site_fract_z
     1  N          0.06063000       0.58527000       0.72177000
     2  H          0.10240000       0.66080000       0.70570000
     3  C          0.15734000       0.57466000       0.81907000
     4  H          0.16310000       0.63240000       0.88980000
     5  H          0.11500000       0.48750000       0.82990000
     6  C          0.30484000       0.60596000       0.80056000
     7  H          0.36980000       0.61140000       0.87090000
     8  H          0.30360000       0.54080000       0.73830000
     9  O          0.35113000       0.72447000       0.77098000
    10  C          0.49935000       0.77646000       0.76395000
    11  H          0.51250000       0.72800000       0.69610000
    12  H          0.56050000       0.77400000       0.83280000
    13  C          0.53875000       0.91025000       0.75536000
    14  H          0.63790000       0.94820000       0.74370000
    15  H          0.47300000       0.91160000       0.68880000
    16  N          0.52884000      -0.01453000       0.86037000
    17  H          0.45030000       0.93760000       0.88260000
    18  H          0.59940000      -0.00440000       0.91770000
    19  C          0.53385000       0.11094000       0.85366000
    20  H          0.62230000       0.16070000       0.82970000
    21  H          0.53780000       0.15680000       0.93020000
    22  C          0.40305000       0.09984000       0.76946000
    23  H          0.40040000       0.18300000       0.77560000
    24  H          0.40610000       0.06780000       0.69030000
    25  O          0.28123000       0.01373000       0.79987000
    26  C          0.14915000       0.00264000       0.73776000
    27  H          0.13680000       0.96840000       0.65560000
    28  H          0.14760000       0.08640000       0.74760000
    29  C          0.03025000       0.91516000       0.78246000
    30  H          0.05400000       0.93920000       0.86690000
    31  H          0.93970000       0.92170000       0.75490000
    32  O          0.01203000       0.78848000       0.74398000
    33  C          0.94696000       0.70816000       0.81396000
    34  H          0.85440000       0.71000000       0.82220000
    35  H          0.01070000       0.73430000       0.89070000
    36  C          0.92356000       0.57856000       0.75386000
    37  H          0.84540000       0.54680000       0.68460000
    38  H          0.89520000       0.51980000       0.80460000
    39  C          0.03654000       0.49136000       0.61247000
    40  H          0.13060000       0.50330000       0.59500000
    41  H         -0.01110000       0.40470000       0.62340000
    42  C          0.94476000       0.50626000       0.51287000
    43  C          0.00405000       0.60936000       0.46627000
    44  C          0.15025000       0.70396000       0.50416000
    45  H          0.21180000       0.69770000       0.56610000
    46  C          0.20196000       0.80095000       0.45415000
    47  H          0.29890000       0.86210000       0.48130000
    48  C          0.11268000       0.81294000       0.36085000
    49  H          0.15070000       0.88210000       0.32650000
    50  C          0.97393000       0.72684000       0.32086000
    51  H          0.91630000       0.73630000       0.25840000
    52  C          0.91424000       0.62415000       0.37016000
    53  C          0.77414000       0.53455000       0.33016000
    54  H          0.71600000       0.54550000       0.26910000
    55  C          0.71355000       0.42985000       0.37406000
    56  C          0.56865000       0.33414000       0.32956000
    57  H          0.50980000       0.34370000       0.26800000
    58  C          0.51524000       0.23394000       0.37125000
    59  H          0.41910000       0.17290000       0.33980000
    60  C          0.59834000       0.21664000       0.46095000
    61  H          0.55820000       0.14300000       0.48910000
    62  C          0.73555000       0.30235000       0.50946000
    63  H          0.78850000       0.28870000       0.57200000
    64  C          0.80155000       0.41266000       0.46806000
    65  N          0.18734000       0.45073000       0.16493000
    66  H          0.15440000       0.37420000       0.18040000
    67  C          0.07045000       0.44684000       0.07334000
    68  H          0.09350000       0.53340000       0.06330000
    69  H          0.06730000       0.39470000       0.00010000
    70  C          0.92555000       0.39344000       0.10194000
    71  H          0.92130000       0.45270000       0.16670000
    72  H          0.84930000       0.37910000       0.03550000
    73  O          0.90563000       0.27973000       0.13093000
    74  C          0.76865000       0.21235000       0.15754000
    75  H          0.69020000       0.21180000       0.10060000
    76  H          0.76630000       0.25390000       0.23380000
    77  C          0.74885000       0.08205000       0.15574000
    78  H          0.65680000       0.03500000       0.17660000
    79  H          0.82760000       0.08340000       0.21280000
    80  N          0.74804000       0.01694000       0.04123000
    81  H          0.81440000       0.06940000       0.01140000
    82  C          0.76395000       0.89966000       0.03935000
    83  H          0.75490000       0.85900000       0.95940000
    84  H          0.68440000       0.84160000       0.06760000
    85  C          0.90415000       0.91746000       0.10964000
    86  H          0.90760000       0.94170000       0.19190000
    87  H          0.91710000       0.83880000       0.09430000
    88  O          0.01193000       0.01513000       0.07673000
    89  C          0.15195000       0.04544000       0.14034000
    90  H          0.16910000       0.96850000       0.13400000
    91  H          0.16120000       0.08050000       0.22180000
    92  C          0.25755000       0.13964000       0.09314000
    93  H          0.35440000       0.14410000       0.11900000
    94  H          0.23130000       0.11420000       0.00870000
    95  O          0.25843000       0.25973000       0.13082000
    96  C          0.30785000       0.34384000       0.05954000
    97  H          0.23790000       0.31490000       0.98550000
    98  H          0.40160000       0.35010000       0.04520000
    99  C          0.32265000       0.46844000       0.12354000
   100  H          0.33940000       0.52820000       0.07300000
   101  H          0.40600000       0.50420000       0.18930000
   102  C          0.21365000       0.54464000       0.27423000
   103  H          0.25310000       0.63090000       0.26090000
   104  H          0.12090000       0.52830000       0.29640000
   105  C          0.31634000       0.53774000       0.37023000
   106  C          0.26715000       0.43494000       0.42333000
   107  C          0.12305000       0.33714000       0.38954000
   108  H          0.05720000       0.33940000       0.32830000
   109  C          0.07916000       0.24135000       0.44384000
   110  H         -0.01710000       0.17800000       0.42060000
   111  C          0.17577000       0.23466000       0.53495000
   112  H          0.14390000       0.16730000       0.57220000
   113  C          0.31107000       0.32316000       0.56794000
   114  H          0.37420000       0.31750000       0.62900000
   115  C          0.36405000       0.42625000       0.51414000
   116  C          0.50435000       0.52025000       0.54984000
   117  H          0.56820000       0.51460000       0.61040000
   118  C          0.55245000       0.62004000       0.50004000
   119  C          0.69735000       0.71775000       0.53985000
   120  H          0.76130000       0.70950000       0.59850000
   121  C          0.74466000       0.82156000       0.49525000
   122  H          0.83990000       0.88560000       0.52350000
   123  C          0.65216000       0.83215000       0.40835000
   124  H          0.68470000       0.90540000       0.37850000
   125  C          0.51456000       0.74045000       0.36385000
   126  H          0.45580000       0.74940000       0.30170000
   127  C          0.45825000       0.63104000       0.40974000
   128  Cl         0.92468900       0.19967800       0.77329200
   129  O          0.86193000       0.28743000       0.78867000
   130  O          0.86894000       0.11893000       0.66247000
   131  O          0.07813000       0.26993000       0.78947000
   132  O          0.89744000       0.12683000       0.85547000
   133  Cl         0.65787120       0.52209110       0.95836890
   134  O          0.59954000       0.58023000       0.03474000
   135  O          0.60834000       0.39393000       0.96036000
   136  O          0.62084000       0.53936000       0.85046000
   137  O          0.81343000       0.58323000      -0.00443000
   138  Cl         0.33973900       0.83705800       0.09970700
   139  O          0.19523000       0.75483000       0.09393000
   140  O          0.39974000       0.91843000       0.20963000
   141  O          0.41774000       0.76404000       0.07603000
   142  O          0.34135000       0.90673000       0.01563000
