data_RIPQUE
_symmetry_space_group_name_H-M    'P1'
_symmetry_Int_Tables_number       1
loop_
_symmetry_equiv_pos_site_id
_symmetry_equiv_pos_as_xyz
1 x,y,z
_cell_length_a                   9.64511
_cell_length_b                   10.949112
_cell_length_c                   13.842515
_cell_angle_alpha                78.072
_cell_angle_beta                 79.082
_cell_angle_gamma                76.762
loop_
_atom_site_label
_atom_site_type_symbol
_atom_site_fract_x
_atom_site_fract_y
_atom_site_fract_z
     1  P          0.22061500       0.62628400       0.20374300
     2  P          0.77938500       0.37371600       0.79625700
     3  C          0.23578190       0.57972170       0.33387130
     4  C          0.76421810       0.42027830       0.66612870
     5  C          0.12832000       0.63023180       0.40614140
     6  C          0.87168000       0.36976820       0.59385860
     7  H          0.05420000       0.69561900       0.38831900
     8  H          0.94580000       0.30438100       0.61168100
     9  C          0.13752000       0.58752000       0.50599150
    10  C          0.86248000       0.41248000       0.49400850
    11  H          0.06520000       0.62320000       0.55281600
    12  H          0.93480000       0.37680000       0.44718400
    13  C          0.25312000       0.49302000       0.53479160
    14  C          0.74688000       0.50698000       0.46520840
    15  H          0.26430000       0.46430000       0.59991200
    16  H          0.73570000       0.53570000       0.40008800
    17  C          0.35862000       0.44032000       0.46351160
    18  C          0.64138000       0.55968000       0.53648840
    19  H          0.43520000       0.37891900       0.48431900
    20  H          0.56480000       0.62108100       0.51568100
    21  C          0.35102000       0.48281180       0.36277150
    22  C          0.64898000       0.51718820       0.63722850
    23  H          0.42020000       0.44620000       0.31621400
    24  H          0.57980000       0.55380000       0.68378600
    25  C          0.15052000       0.50892170       0.16526140
    26  C          0.84948000       0.49107830       0.83473860
    27  C          0.22532000       0.43955190       0.09166160
    28  C          0.77468000       0.56044810       0.90833840
    29  H          0.31681700       0.45120000       0.06191800
    30  H          0.68318300       0.54880000       0.93808200
    31  C          0.16003000       0.35272000       0.06445180
    32  C          0.83997000       0.64728000       0.93554820
    33  H          0.20830000       0.30820000       0.01411600
    34  H          0.79170000       0.69180000       0.98588400
    35  C          0.02273000       0.33772000       0.10923170
    36  C          0.97727000       0.66228000       0.89076830
    37  H          0.97070000       0.28720000       0.09020000
    38  H          0.02930000       0.71280000       0.90980000
    39  C          0.94698000       0.40852000       0.18308170
    40  C          0.05302000       0.59148000       0.81691830
    41  H          0.85698100       0.39330000       0.21520000
    42  H          0.14301900       0.60670000       0.78480000
    43  C          0.01132000       0.49282000       0.21135160
    44  C          0.98868000       0.50718000       0.78864840
    45  H          0.95670000       0.54220000       0.25721600
    46  H          0.04330000       0.45780000       0.74278400
    47  C          0.09467190       0.77405160       0.18385130
    48  C          0.90532810       0.22594840       0.81614870
    49  C          0.09662000       0.87510180       0.23130150
    50  C          0.90338000       0.12489820       0.76869850
    51  H          0.15620000       0.86720000       0.27931500
    52  H          0.84380000       0.13280000       0.72068500
    53  C          0.00252000      -0.00939820       0.20884160
    54  C         -0.00252000       0.00939820       0.79115840
    55  H         -0.00130000       0.05701900       0.24191800
    56  H          0.00130000       0.94298100       0.75808200
    57  C          0.90878000       0.00599180       0.14058160
    58  C          0.09122000      -0.00599180       0.85941840
    59  H          0.83880000       0.08041800       0.13020000
    60  H          0.16120000       0.91958200       0.86980000
    61  C          0.90808000       0.90590190       0.09336150
    62  C          0.09192000       0.09409810       0.90663850
    63  H          0.84870000       0.91730000       0.04621800
    64  H          0.15130000       0.08270000       0.95378200
    65  C          0.00172000       0.79030180       0.11510140
    66  C         -0.00172000       0.20969820       0.88489860
    67  H          0.00130000       0.72620000       0.08120000
    68  H         -0.00130000       0.27380000       0.91880000
    69  C          0.39365190       0.64217170       0.12875140
    70  C          0.60634810       0.35782830       0.87124860
    71  H          0.45220000       0.56431600       0.14631800
    72  H          0.54780000       0.43568400       0.85368200
    73  H          0.37430000       0.65720000       0.06431200
    74  H          0.62570000       0.34280000       0.93568800
    75  C          0.44941180       0.75023170       0.14995130
    76  C          0.55058820       0.24976830       0.85004870
    77  C          0.40228190       0.87529180       0.10587140
    78  C          0.59771810       0.12470820       0.89412860
    79  F          0.31174120       0.90025110       0.03855900
    80  F          0.68825880       0.09974890       0.96144100
    81  C          0.44692000       0.97554180       0.12931150
    82  C          0.55308000       0.02445820       0.87068850
    83  F          0.39219140       0.09432110       0.08625100
    84  F          0.60780860       0.90567890       0.91374900
    85  C          0.54422000       0.95582000       0.19465160
    86  C          0.45578000       0.04418000       0.80534840
    87  H          0.57720000       0.01791800       0.21501800
    88  H          0.42280000       0.98208200       0.78498200
    89  C          0.59522000       0.83162000       0.23629150
    90  C          0.40478000       0.16838000       0.76370850
    91  F          0.69239140       0.80545140       0.29958100
    92  F          0.30760860       0.19454860       0.70041900
    93  C          0.54922000       0.73121180       0.21507140
    94  C          0.45078000       0.26878820       0.78492860
    95  F          0.60278130       0.61239110       0.25752100
    96  F          0.39721870       0.38760890       0.74247900
    97  I          0.68637200       0.17750200       0.35932200
    98  I          0.31362800       0.82249800       0.64067800
    99  C          0.73392000       0.07462180       0.50522150
   100  C          0.26608000       0.92537820       0.49477850
   101  F          0.85788140       0.09688120       0.52343100
   102  F          0.14211860       0.90311880       0.47656900
   103  F          0.62843140       0.11632120       0.57682900
   104  F          0.37156860       0.88367880       0.42317100
   105  C          0.74862000       0.93065810       0.51369150
   106  C          0.25138000       0.06934190       0.48630850
   107  F          0.86111130       0.88754880       0.44721900
   108  F          0.13888870       0.11245120       0.55278100
   109  F          0.63051130       0.90563880       0.49073100
   110  F          0.36948870       0.09436120       0.50926900
   111  I          0.78089200       0.82806800       0.66122200
   112  I          0.21910800       0.17193200       0.33877800
   113  Br         0.61475200       0.31789200       0.14415200
   114  Br         0.38524800       0.68210800       0.85584800
