data_RIPXOG
_symmetry_space_group_name_H-M    'P1'
_symmetry_Int_Tables_number       1
loop_
_symmetry_equiv_pos_site_id
_symmetry_equiv_pos_as_xyz
1 x,y,z
_cell_length_a                   26.7442
_cell_length_b                   3.86603
_cell_length_c                   24.3522
_cell_angle_alpha                90.0
_cell_angle_beta                 90.0
_cell_angle_gamma                90.0
loop_
_atom_site_label
_atom_site_type_symbol
_atom_site_fract_x
_atom_site_fract_y
_atom_site_fract_z
     1  N          0.32905800       0.60296000       0.45928900
     2  N          0.67094200       0.39704000       0.95928900
     3  N          0.82905800       0.89704000       0.45928900
     4  N          0.17094200       0.10296000       0.95928900
     5  H          0.35421200       0.49980000       0.44991300
     6  H          0.64578800       0.50020000       0.94991300
     7  H          0.85421200       0.00020000       0.44991300
     8  H          0.14578800      -0.00020000       0.94991300
     9  H          0.32111100       0.61780000       0.49341400
    10  H          0.67888900       0.38220000       0.99341400
    11  H          0.82111100       0.88220000       0.49341400
    12  H          0.17888900       0.11780000       0.99341400
    13  O          0.31180600       0.63195000       0.36925700
    14  O          0.68819400       0.36805000       0.86925700
    15  O          0.81180600       0.86805000       0.36925700
    16  O          0.18819400       0.13195000       0.86925700
    17  O          0.22760700       0.86155000       0.33311700
    18  O          0.77239300       0.13845000       0.83311700
    19  O          0.72760700       0.63845000       0.33311700
    20  O          0.27239300       0.36155000       0.83311700
    21  H          0.25801500       0.76210000       0.33281900
    22  H          0.74198500       0.23790000       0.83281900
    23  H          0.75801500       0.73790000       0.33281900
    24  H          0.24198500       0.26210000       0.83281900
    25  C          0.25126800       0.87046000       0.42958900
    26  C          0.74873200       0.12954000       0.92958900
    27  C          0.75126800       0.62954000       0.42958900
    28  C          0.24873200       0.37046000       0.92958900
    29  C          0.21855800       0.94696000       0.38596900
    30  C          0.78144200       0.05304000       0.88596900
    31  C          0.71855800       0.55304000       0.38596900
    32  C          0.28144200       0.44696000       0.88596900
    33  C          0.17347800       0.11856000       0.39627100
    34  C          0.82652200       0.88144000       0.89627100
    35  C          0.67347800       0.38144000       0.39627100
    36  C          0.32652200       0.61856000       0.89627100
    37  H          0.15180000       0.17530000       0.36670000
    38  H          0.84820000       0.82470000       0.86670000
    39  H          0.65180000       0.32470000       0.36670000
    40  H          0.34820000       0.67530000       0.86670000
    41  C          0.16043800       0.20536000       0.44929110
    42  C          0.83956200       0.79464000       0.94929110
    43  C          0.66043800       0.29464000       0.44929110
    44  C          0.33956200       0.70536000       0.94929110
    45  H          0.12970000       0.32070000       0.45610000
    46  H          0.87030000       0.67930000       0.95610000
    47  H          0.62970000       0.17930000       0.45610000
    48  H          0.37030000       0.82070000       0.95610000
    49  C          0.19196900       0.12546000       0.49293100
    50  C          0.80803100       0.87454000       0.99293100
    51  C          0.69196900       0.37454000       0.49293100
    52  C          0.30803100       0.62546000       0.99293100
    53  H          0.18250000       0.18250000       0.52940000
    54  H          0.81750000       0.81750000       0.02940000
    55  H          0.68250000       0.31750000       0.52940000
    56  H          0.31750000       0.68250000       0.02940000
    57  C          0.23697800       0.96336000       0.48320900
    58  C          0.76302200       0.03664000       0.98320900
    59  C          0.73697800       0.53664000       0.48320900
    60  C          0.26302200       0.46336000       0.98320900
    61  H          0.25870000       0.91360000       0.51310000
    62  H          0.74130000       0.08640000       0.01310000
    63  H          0.75870000       0.58640000       0.51310000
    64  H          0.24130000       0.41360000       0.01310000
    65  C          0.29925800       0.69316000       0.41813100
    66  C          0.70074200       0.30684000       0.91813100
    67  C          0.79925800       0.80684000       0.41813100
    68  C          0.20074200       0.19316000       0.91813100
    69  N          0.61952800       0.92964000       0.28109900
    70  N          0.38047200       0.07036000       0.78109900
    71  N          0.11952800       0.57036000       0.28109900
    72  N          0.88047200       0.42964000       0.78109900
    73  H          0.62681100      -0.01680000       0.24681500
    74  H          0.37318900       0.01680000       0.74681500
    75  H          0.12681100       0.51680000       0.24681500
    76  H          0.87318900       0.48320000       0.74681500
    77  H          0.64021200       0.81120000       0.30081400
    78  H          0.35978800       0.18880000       0.80081400
    79  H          0.14021200       0.68880000       0.30081400
    80  H          0.85978800       0.31120000       0.80081400
    81  O          0.39718600       0.39655000       0.33147700
    82  O          0.60281400       0.60345000       0.83147700
    83  O          0.89718600       0.10345000       0.33147700
    84  O          0.10281400       0.89655000       0.83147700
    85  H          0.36741400       0.47010000       0.34731700
    86  H          0.63258600       0.52990000       0.84731700
    87  H          0.86741400       0.02990000       0.34731700
    88  H          0.13258600      -0.02990000       0.84731700
    89  O          0.41971600       0.24375000       0.41668800
    90  O          0.58028400       0.75625000       0.91668800
    91  O          0.91971600       0.25625000       0.41668800
    92  O          0.08028400       0.74375000       0.91668800
    93  C          0.47827800       0.17426000       0.34363900
    94  C          0.52172200       0.82574000       0.84363900
    95  C          0.97827800       0.32574000       0.34363900
    96  C          0.02172200       0.67426000       0.84363900
    97  C          0.49091800       0.25866000       0.28920110
    98  C          0.50908200       0.74134000       0.78920110
    99  C          0.99091800       0.24134000       0.28920110
   100  C          0.00908200       0.75866000       0.78920110
   101  H          0.46710000       0.37160000       0.26640000
   102  H          0.53290000       0.62840000       0.76640000
   103  H          0.96710000       0.12840000       0.26640000
   104  H          0.03290000       0.87160000       0.76640000
   105  C          0.53777800       0.17826000       0.26853100
   106  C          0.46222200       0.82174000       0.76853100
   107  C          0.03777800       0.32174000       0.26853100
   108  C          0.96222200       0.67826000       0.76853100
   109  H          0.54600000       0.24000000       0.23190000
   110  H          0.45400000       0.76000000       0.73190000
   111  H          0.04600000       0.26000000       0.23190000
   112  H          0.95400000       0.74000000       0.73190000
   113  C          0.57315800       0.00646000       0.30120900
   114  C          0.42684200      -0.00646000       0.80120900
   115  C          0.07315800       0.49354000       0.30120900
   116  C          0.92684200       0.50646000       0.80120900
   117  C          0.56011800       0.91914000       0.35555900
   118  C          0.43988200       0.08086000       0.85555900
   119  C          0.06011800       0.58086000       0.35555900
   120  C          0.93988200       0.41914000       0.85555900
   121  H          0.58360000       0.80220000       0.37820000
   122  H          0.41640000       0.19780000       0.87820000
   123  H          0.08360000       0.69780000       0.37820000
   124  H          0.91640000       0.30220000       0.87820000
   125  C          0.51353800       0.00256000       0.37608900
   126  C          0.48646200      -0.00256000       0.87608900
   127  C          0.01353800       0.49744000       0.37608900
   128  C          0.98646200       0.50256000       0.87608900
   129  H          0.50530000       0.94230000       0.41280000
   130  H          0.49470000       0.05770000       0.91280000
   131  H          0.00530000       0.55770000       0.41280000
   132  H          0.99470000       0.44230000       0.91280000
   133  C          0.42987800       0.27066000       0.36763110
   134  C          0.57012200       0.72934000       0.86763110
   135  C          0.92987800       0.22934000       0.36763110
   136  C          0.07012200       0.77066000       0.86763110
   137  N          0.41618700       0.09286000       0.53775800
   138  N          0.58381300       0.90714000       0.03775800
   139  N          0.91618700       0.40714000       0.53775800
   140  N          0.08381300       0.59286000       0.03775800
   141  H          0.38571100      -0.03070000       0.54571300
   142  H          0.61428900       0.03070000       0.04571300
   143  H          0.88571100       0.53070000       0.54571300
   144  H          0.11428900       0.46930000       0.04571300
   145  H          0.42441100       0.14580000       0.50321300
   146  H          0.57558900       0.85420000       0.00321300
   147  H          0.92441100       0.35420000       0.50321300
   148  H          0.07558900       0.64580000       0.00321300
   149  O          0.43437600       0.09575000       0.62799700
   150  O          0.56562400       0.90425000       0.12799700
   151  O          0.93437600       0.40425000       0.62799700
   152  O          0.06562400       0.59575000       0.12799700
   153  O          0.51730600       0.33145000       0.66572700
   154  O          0.48269400       0.66855000       0.16572700
   155  O          0.01730600       0.16855000       0.66572700
   156  O          0.98269400       0.83145000       0.16572700
   157  H          0.48831300       0.20890000       0.66191600
   158  H          0.51168700       0.79110000       0.16191600
   159  H          0.98831300       0.29110000       0.66191600
   160  H          0.01168700       0.70890000       0.16191600
   161  C          0.49431800       0.35496000       0.56909900
   162  C          0.50568200       0.64504000       0.06909900
   163  C          0.99431800       0.14504000       0.56909900
   164  C          0.00568200       0.85496000       0.06909900
   165  C          0.52667800       0.42656000       0.61330900
   166  C          0.47332200       0.57344000       0.11330900
   167  C          0.02667800       0.07344000       0.61330900
   168  C          0.97332200       0.92656000       0.11330900
   169  C          0.57166800       0.60156000       0.60381100
   170  C          0.42833200       0.39844000       0.10381100
   171  C          0.07166800       0.89844000       0.60381100
   172  C          0.92833200       0.10156000       0.10381100
   173  H          0.59320000       0.65410000       0.63370000
   174  H          0.40680000       0.34590000       0.13370000
   175  H          0.09320000       0.84590000       0.63370000
   176  H          0.90680000       0.15410000       0.13370000
   177  C          0.58484900       0.69756000       0.55146110
   178  C          0.41515100       0.30244000       0.05146110
   179  C          0.08484900       0.80244000       0.55146110
   180  C          0.91515100       0.19756000       0.05146110
   181  H          0.61560000       0.81430000       0.54540000
   182  H          0.38440000       0.18570000       0.04540000
   183  H          0.11560000       0.68570000       0.54540000
   184  H          0.88440000       0.31430000       0.04540000
   185  C          0.55352900       0.62516000       0.50718100
   186  C          0.44647100       0.37484000       0.00718100
   187  C          0.05352900       0.87484000       0.50718100
   188  C          0.94647100       0.12516000       0.00718100
   189  H          0.56300000       0.69020000       0.47100000
   190  H          0.43700000       0.30980000       0.97100000
   191  H          0.06300000       0.80980000       0.47100000
   192  H          0.93700000       0.19020000       0.97100000
   193  C          0.50865800       0.45826000       0.51621900
   194  C          0.49134200       0.54174000       0.01621900
   195  C          0.00865800       0.04174000       0.51621900
   196  C          0.99134200       0.95826000       0.01621900
   197  H          0.48710000       0.41250000       0.48610000
   198  H          0.51290000       0.58750000       0.98610000
   199  H          0.98710000       0.08750000       0.48610000
   200  H          0.01290000       0.91250000       0.98610000
   201  C          0.44642800       0.17496000       0.57940100
   202  C          0.55357200       0.82504000       0.07940100
   203  C          0.94642800       0.32504000       0.57940100
   204  C          0.05357200       0.67496000       0.07940100
   205  N          0.12548800       0.47193000       0.72205900
   206  N          0.87451200       0.52807000       0.22205900
   207  N          0.62548800       0.02807000       0.72205900
   208  N          0.37451200      -0.02807000       0.22205900
   209  H          0.11971200       0.54410000       0.75671500
   210  H          0.88028800       0.45590000       0.25671500
   211  H          0.61971200       0.95590000       0.75671500
   212  H          0.38028800       0.04410000       0.25671500
   213  H          0.10411200       0.36510000       0.70551400
   214  H          0.89588800       0.63490000       0.20551400
   215  H          0.60411200       0.13490000       0.70551400
   216  H          0.39588800       0.86510000       0.20551400
   217  O          0.34763600       0.90495000       0.66469700
   218  O          0.65236400       0.09505000       0.16469700
   219  O          0.84763600       0.59505000       0.66469700
   220  O          0.15236400       0.40495000       0.16469700
   221  H          0.37661500       0.95589000       0.64741800
   222  H          0.62338500       0.04411000       0.14741800
   223  H          0.87661500       0.54411000       0.64741800
   224  H          0.12338500       0.45589000       0.14741800
   225  O          0.32489600       0.72565000       0.58130700
   226  O          0.67510400       0.27435000       0.08130700
   227  O          0.82489600       0.77435000       0.58130700
   228  O          0.17510400       0.22565000       0.08130700
   229  C          0.26623800       0.68614000       0.65543900
   230  C          0.73376200       0.31386000       0.15543900
   231  C          0.76623800       0.81386000       0.65543900
   232  C          0.23376200       0.18614000       0.15543900
   233  C          0.25474900       0.77334000       0.70989110
   234  C          0.74525100       0.22666000       0.20989110
   235  C          0.75474900       0.72666000       0.70989110
   236  C          0.24525100       0.27334000       0.20989110
   237  H          0.27940000       0.88180000       0.73210000
   238  H          0.72060000       0.11820000       0.23210000
   239  H          0.77940000       0.61820000       0.73210000
   240  H          0.22060000       0.38180000       0.23210000
   241  C          0.20852800       0.70444000       0.73145100
   242  C          0.79147200       0.29556000       0.23145100
   243  C          0.70852800       0.79556000       0.73145100
   244  C          0.29147200       0.20444000       0.23145100
   245  H          0.20130000       0.77010000       0.76820000
   246  H          0.79870000       0.22990000       0.26820000
   247  H          0.70130000       0.72990000       0.76820000
   248  H          0.29870000       0.27010000       0.26820000
   249  C          0.17156800       0.53844000       0.70012100
   250  C          0.82843200       0.46156000       0.20012100
   251  C          0.67156800       0.96156000       0.70012100
   252  C          0.32843200       0.03844000       0.20012100
   253  C          0.18338800       0.44544000       0.64567900
   254  C          0.81661200       0.55456000       0.14567900
   255  C          0.68338800       0.05456000       0.64567900
   256  C          0.31661200       0.94544000       0.14567900
   257  H          0.15910000       0.33110000       0.62370000
   258  H          0.84090000       0.66890000       0.12370000
   259  H          0.65910000       0.16890000       0.62370000
   260  H          0.34090000       0.83110000       0.12370000
   261  C          0.22973800       0.51854000       0.62399900
   262  C          0.77026200       0.48146000       0.12399900
   263  C          0.72973800      -0.01854000       0.62399900
   264  C          0.27026200       0.01854000       0.12399900
   265  H          0.23700000       0.45450000       0.58720000
   266  H          0.76300000       0.54550000       0.08720000
   267  H          0.73700000       0.04550000       0.58720000
   268  H          0.26300000       0.95450000       0.08720000
   269  C          0.31460900       0.76934000       0.63024110
   270  C          0.68539100       0.23066000       0.13024110
   271  C          0.81460900       0.73066000       0.63024110
   272  C          0.18539100       0.26934000       0.13024110
