data_RIWWUT
_symmetry_space_group_name_H-M    'P1'
_symmetry_Int_Tables_number       1
loop_
_symmetry_equiv_pos_site_id
_symmetry_equiv_pos_as_xyz
1 x,y,z
_cell_length_a                   9.946401
_cell_length_b                   10.359001
_cell_length_c                   16.84943
_cell_angle_alpha                88.94201
_cell_angle_beta                 86.96901
_cell_angle_gamma                80.65001
loop_
_atom_site_label
_atom_site_type_symbol
_atom_site_fract_x
_atom_site_fract_y
_atom_site_fract_z
     1  Cl         0.50008700       0.80921100       0.02317400
     2  Cl         0.49991300       0.19078900       0.97682600
     3  C          0.55813000       0.66013000       0.89184160
     4  C          0.44187000       0.33987000       0.10815840
     5  H          0.48289200       0.61876900       0.90904800
     6  H          0.51710800       0.38123100       0.09095200
     7  C          0.74413000       0.67953000       0.79803150
     8  C          0.25587000       0.32047000       0.20196850
     9  H          0.79557400       0.65282500       0.75036400
    10  H          0.20442600       0.34717500       0.24963600
    11  C          0.63383000       0.62153000       0.82221160
    12  C          0.36617000       0.37847000       0.17778840
    13  H          0.60912200       0.55438800       0.79100800
    14  H          0.39087800       0.44561200       0.20899200
    15  C          0.59353000       0.75853000       0.93520150
    16  C          0.40647000       0.24147000       0.06479850
    17  C          0.77933000       0.77704000       0.84372000
    18  C          0.22067000       0.22296000       0.15628000
    19  H          0.85615500       0.81668300       0.82764700
    20  H          0.14384500       0.18331700       0.17235300
    21  C          0.70383000       0.81734000       0.91265190
    22  C          0.29617000       0.18266000       0.08734810
    23  H          0.72788900       0.88458700       0.94391000
    24  H          0.27211100       0.11541300       0.05609000
    25  O          0.05412150       0.79165150       0.96128800
    26  O          0.94587850       0.20834850       0.03871200
    27  O          0.26423150       0.57575150       0.95780800
    28  O          0.73576850       0.42424850       0.04219200
    29  C          0.02884190       0.63949190       0.62838120
    30  C          0.97115810       0.36050810       0.37161880
    31  C          0.11552000       0.72744190       0.50096110
    32  C          0.88448000       0.27255810       0.49903890
    33  H          0.19852600       0.66969300       0.50818500
    34  H          0.80147400       0.33030700       0.49181500
    35  C          0.39202000       0.78760190       0.51716120
    36  C          0.60798000       0.21239810       0.48283880
    37  H          0.31159400       0.85132100       0.51919900
    38  H          0.68840600       0.14867900       0.48080100
    39  C          0.28262000       0.83382190       0.78597110
    40  C          0.71738000       0.16617810       0.21402890
    41  C          0.10942000       0.59673190       0.76223110
    42  C          0.89058000       0.40326810       0.23776890
    43  C          0.41592000       0.83412000       0.65979120
    44  C          0.58408000       0.16588000       0.34020880
    45  C          0.08452000       0.46541190       0.75666120
    46  C          0.91548000       0.53458810       0.24333880
    47  C          0.01012000       0.72908190       0.55793110
    48  C         -0.01012000       0.27091810       0.44206890
    49  C          0.55952000       0.63522000       0.44246120
    50  C          0.44048000       0.36478000       0.55753880
    51  C          0.97408000       0.88563190       0.42118120
    52  C          0.02592000       0.11436810       0.57881880
    53  C          0.19702000       0.77275190       0.84139110
    54  C          0.80298000       0.22724810       0.15860890
    55  C          0.16962000       0.63645190       0.83156120
    56  C          0.83038000       0.36354810       0.16843880
    57  C          0.88548000       0.81282000       0.54813120
    58  C          0.11452000       0.18718000       0.45186880
    59  H          0.81413500       0.81791100       0.58827300
    60  H          0.18586500       0.18208900       0.41172700
    61  C          0.10452000       0.80879190       0.43195110
    62  C          0.89548000       0.19120810       0.56804890
    63  C          0.07452000       0.68277190       0.69723110
    64  C          0.92548000       0.31722810       0.30276890
    65  H          0.08287000       0.77242000       0.70139800
    66  H          0.91713000       0.22758000       0.29860200
    67  C          0.34652000       0.77019190       0.71666120
    68  C          0.65348000       0.22980810       0.28333880
    69  H          0.34112500       0.68048500       0.70936200
    70  H          0.65887500       0.31951500       0.29063800
    71  C          0.21232000       0.80569190       0.36922120
    72  C          0.78768000       0.19430810       0.63077880
    73  C          0.30442000       0.96418190       0.79886120
    74  C          0.69558000       0.03581810       0.20113880
    75  C          0.14032000       0.84372000       0.90685120
    76  C          0.85968000       0.15628000       0.09314880
    77  C          0.35292000       0.73991190       0.37353120
    78  C          0.64708000       0.26008810       0.62646880
    79  C          0.43102000       0.71949190       0.44523120
    80  C          0.56898000       0.28050810       0.55476880
    81  C          0.00432000       0.50932000       0.62392120
    82  C         -0.00432000       0.49068000       0.37607880
    83  H          0.97013000       0.48008700       0.57703700
    84  H          0.02987000       0.51991300       0.42296300
    85  C          0.19982000       0.54502000       0.89129120
    86  C          0.80018000       0.45498000       0.10870880
    87  C          0.46642000       0.76479190       0.58442120
    88  C          0.53358000       0.23520810       0.41557880
    89  C          0.58752000       0.67242000       0.58201130
    90  C          0.41248000       0.32758000       0.41798870
    91  H          0.63661300       0.65224300       0.62868700
    92  H          0.36338700       0.34775700       0.37131300
    93  C          0.42482000       0.69852000       0.30105120
    94  C          0.57518000       0.30148000       0.69894880
    95  C          0.02972000       0.42542000       0.68689120
    96  C          0.97028000       0.57458000       0.31310880
    97  H          0.01032700       0.33881200       0.68385600
    98  H         -0.01032700       0.66118800       0.31614400
    99  C          0.63362000       0.61212000       0.51187130
   100  C          0.36638000       0.38788000       0.48812870
   101  H          0.71758400       0.55328000       0.50987800
   102  H          0.28241600       0.44672000       0.49012200
   103  C          0.86828000       0.88666190       0.48041130
   104  C          0.13172000       0.11333810       0.51958870
   105  H          0.78276200       0.94019800       0.47296800
   106  H          0.21723800       0.05980200       0.52703200
   107  C          0.16452000       0.97192000       0.92056130
   108  C          0.83548000       0.02808000       0.07943870
   109  H          0.12411000       0.01753800       0.96650400
   110  H          0.87589000       0.98246200       0.03349600
   111  C          0.94688000       0.95502000       0.34848130
   112  C          0.05312000       0.04498000       0.65151870
   113  H          0.86296300       0.01231300       0.34323900
   114  H          0.13703700      -0.01231300       0.65676100
   115  C          0.24522000       0.03052000       0.86833120
   116  C          0.75478000       0.96948000       0.13166880
   117  H          0.26208300       0.11617400       0.87842200
   118  H          0.73791700       0.88382600       0.12157800
   119  C          0.17172000       0.86052000       0.29474120
   120  C          0.82828000       0.13948000       0.70525880
   121  C          0.38222000       0.02602000       0.74146130
   122  C          0.61778000       0.97398000       0.25853870
   123  H          0.39873800       0.11206500       0.75091900
   124  H          0.60126200       0.88793500       0.24908100
   125  C          0.61662000       0.57962000       0.36913130
   126  C          0.38338000       0.42038000       0.63086870
   127  H          0.69846700       0.51773900       0.36820500
   128  H          0.30153300       0.48226100       0.63179500
   129  C          0.17462000       0.41512000       0.88578120
   130  C          0.82538000       0.58488000       0.11421880
   131  H          0.19669900       0.35478500       0.92806700
   132  H          0.80330100       0.64521500       0.07193300
   133  C          0.11842000       0.37622000       0.81980120
   134  C          0.88158000       0.62378000       0.18019880
   135  H          0.10207900       0.28870800       0.81630400
   136  H          0.89792100       0.71129200       0.18369600
   137  C          0.43422000       0.96462000       0.67264130
   138  C          0.56578000       0.03538000       0.32735870
   139  H          0.48227500       0.00938300       0.63369000
   140  H          0.51772500      -0.00938300       0.36631000
   141  C          0.55442000       0.61482000       0.30080130
   142  C          0.44558000       0.38518000       0.69919870
   143  H          0.59752400       0.58343100       0.25165500
   144  H          0.40247600       0.41656900       0.74834500
   145  C          0.12112000       0.74542000       0.03289120
   146  C          0.87888000       0.25458000       0.96710880
   147  H          0.05570100       0.76231700       0.07933400
   148  H          0.94429900       0.23768300       0.92066600
   149  H          0.19771800       0.79333200       0.04042100
   150  H          0.80228200       0.20666800       0.95957900
   151  C          0.04072000       0.93912000       0.28704130
   152  C          0.95928000       0.06088000       0.71295870
   153  H          0.01922300       0.98109900       0.23763800
   154  H          0.98077700       0.01890100       0.76236200
   155  C          0.25682000       0.83152000       0.22449130
   156  C          0.74318000       0.16848000       0.77550870
   157  H          0.23093400       0.87340400       0.17572600
   158  H          0.76906600       0.12659600       0.82427400
   159  C          0.17392000       0.60152000       0.02754130
   160  C          0.82608000       0.39848000       0.97245870
   161  H          0.22349500       0.57149700       0.07563600
   162  H          0.77650500       0.42850300       0.92436400
   163  H          0.09656100       0.55269400       0.02459400
   164  H          0.90343900       0.44730600       0.97540600
   165  C          0.37372000       0.74532000       0.22666130
   166  C          0.62628000       0.25468000       0.77333870
   167  H          0.42195800       0.71562500       0.17854100
   168  H          0.57804200       0.28437500       0.82145900
