data_RIWWEA
_symmetry_space_group_name_H-M    'P1'
_symmetry_Int_Tables_number       1
loop_
_symmetry_equiv_pos_site_id
_symmetry_equiv_pos_as_xyz
1 x,y,z
_cell_length_a                   7.38443
_cell_length_b                   7.82994
_cell_length_c                   16.40908
_cell_angle_alpha                90.0
_cell_angle_beta                 93.8383
_cell_angle_gamma                90.0
loop_
_atom_site_label
_atom_site_type_symbol
_atom_site_fract_x
_atom_site_fract_y
_atom_site_fract_z
     1  O          0.19042140       0.24303150       0.68857600
     2  O          0.80957860       0.74303150       0.31142400
     3  O          0.05950130       0.10173140       0.78821600
     4  O          0.94049870       0.60173140       0.21178400
     5  O          0.78078900       0.33374170       0.78208500
     6  O          0.21921100       0.83374170       0.21791500
     7  C          0.05758160       0.21254170       0.73621700
     8  C          0.94241840       0.71254170       0.26378300
     9  C          0.89457860       0.32632000       0.71580600
    10  C          0.10542140       0.82632000       0.28419400
    11  H          0.93470000       0.44350000       0.70090000
    12  H          0.06530000       0.94350000       0.29910000
    13  C          0.78158820       0.24534190       0.64459700
    14  C          0.21841180       0.74534190       0.35540300
    15  H          0.74250000       0.13100000       0.66030000
    16  H          0.25750000       0.63100000       0.33970000
    17  H          0.85500000       0.23660000       0.59720000
    18  H          0.14500000       0.73660000       0.40280000
    19  H          0.67480000       0.31640000       0.63060000
    20  H          0.32520000       0.81640000       0.36940000
    21  C          0.84815840       0.41097160       0.85268700
    22  C          0.15184160       0.91097160       0.14731300
    23  C          0.73435830       0.41330180       0.91699800
    24  C          0.26564170       0.91330180       0.08300200
    25  C          0.78878000       0.48672000      -0.00844200
    26  C          0.21122000      -0.01328000       0.00844200
    27  H          0.70910000       0.48700000       0.03470000
    28  H          0.29090000      -0.01300000       0.96530000
    29  C          0.96036810       0.55982000       0.00314900
    30  C          0.03963190       0.05982000      -0.00314900
    31  H         -0.00120000       0.60990000       0.05410000
    32  H          0.00120000       0.10990000       0.94590000
    33  C          0.07414190       0.55862000       0.93955900
    34  C          0.92585810       0.05862000       0.06044100
    35  H          0.19120000       0.60860000       0.94720000
    36  H          0.80880000       0.10860000       0.05280000
    37  C          0.01999170       0.48520180       0.86448700
    38  C         -0.01999170      -0.01479820       0.13551300
    39  H          0.09980000       0.48560000       0.82140000
    40  H          0.90020000      -0.01440000       0.17860000
    41  Br         0.49905185       0.31799300       0.90236170
    42  Br         0.50094815       0.81799300       0.09763830
    43  H          0.26540000       0.19740000       0.69901500
    44  H          0.73460000       0.69740000       0.30098500
    45  O          0.30543130       0.86068130       0.81053600
    46  O          0.69456870       0.36068130       0.18946400
    47  O          0.43978130       0.00726140       0.71306600
    48  O          0.56021870       0.50726140       0.28693400
    49  O          0.71983120       0.77420120       0.72018500
    50  O          0.28016880       0.27420120       0.27981500
    51  C          0.96346190       0.77702000       0.60504100
    52  C          0.03653810       0.27702000       0.39495900
    53  H          0.01780000       0.73150000       0.65670000
    54  H         -0.01780000       0.23150000       0.34330000
    55  H          0.95100000       0.90120000       0.60930000
    56  H          0.04900000       0.40120000       0.39070000
    57  H          0.04150000       0.74950000       0.56080000
    58  H          0.95850000       0.24950000       0.43920000
    59  C          0.44075170       0.89420170       0.76462700
    60  C          0.55924830       0.39420170       0.23537300
    61  C          0.60368160       0.78029160       0.78571700
    62  C          0.39631840       0.28029160       0.21428300
    63  H          0.56330000       0.66270000       0.79990000
    64  H          0.43670000       0.16270000       0.20010000
    65  C          0.71286180       0.86078180       0.85789800
    66  C          0.28713820       0.36078180       0.14210200
    67  H          0.82450000       0.79510000       0.86990000
    68  H          0.17550000       0.29510000       0.13010000
    69  H          0.64050000       0.86030000       0.90580000
    70  H          0.35950000       0.36030000       0.09420000
    71  H          0.74390000       0.97870000       0.84440000
    72  H          0.25610000       0.47870000       0.15560000
    73  C          0.65457180       0.69684180       0.64850700
    74  C          0.34542820       0.19684180       0.35149300
    75  C          0.77762000       0.69744190       0.58684800
    76  C          0.22238000       0.19744190       0.41315200
    77  C          0.72122000       0.62162000       0.51279800
    78  C          0.27878000       0.12162000       0.48720200
    79  H          0.80240000       0.62000000       0.47030000
    80  H          0.19760000       0.12000000       0.52970000
    81  C          0.55202000       0.54862000       0.49870900
    82  C          0.44798000       0.04862000       0.50129100
    83  H          0.51710000       0.49950000       0.44710000
    84  H          0.48290000      -0.00050000       0.55290000
    85  C          0.43262000       0.54752000       0.56110900
    86  C          0.56738000       0.04752000       0.43889100
    87  H          0.31640000       0.49620000       0.55240000
    88  H          0.68360000      -0.00380000       0.44760000
    89  C          0.48408190       0.62203190       0.63636800
    90  C          0.51591810       0.12203190       0.36363200
    91  H          0.40320000       0.62160000       0.67900000
    92  H          0.59680000       0.12160000       0.32100000
    93  H          0.23030000       0.94330000       0.80101300
    94  H          0.76970000       0.44330000       0.19898700
