data_RIZWUS
_symmetry_space_group_name_H-M    'P1'
_symmetry_Int_Tables_number       1
loop_
_symmetry_equiv_pos_site_id
_symmetry_equiv_pos_as_xyz
1 x,y,z
_cell_length_a                   10.5255
_cell_length_b                   10.7302
_cell_length_c                   13.7324
_cell_angle_alpha                88.172
_cell_angle_beta                 67.843
_cell_angle_gamma                65.332
loop_
_atom_site_label
_atom_site_type_symbol
_atom_site_fract_x
_atom_site_fract_y
_atom_site_fract_z
     1  O          0.12824000       0.64287000       0.94808000
     2  O          0.87176000       0.35713000       0.05192000
     3  O          0.24163000       0.67558000       0.36522000
     4  O          0.75837000       0.32442000       0.63478000
     5  N          0.18853000       0.77507000       0.02932000
     6  N          0.81147000       0.22493000       0.97068000
     7  N          0.28133000       0.93377000       0.96578000
     8  N          0.71867000       0.06623000       0.03422000
     9  N          0.26743000       0.47597000       0.43342000
    10  N          0.73257000       0.52403000       0.56658000
    11  N          0.33243000       0.38907000       0.57192000
    12  N          0.66757000       0.61093000       0.42808000
    13  C          0.17453000       0.56527000       0.10252000
    14  C          0.82547000       0.43473000       0.89748000
    15  C          0.20354000       0.61317000       0.19292000
    16  C          0.79646000       0.38683000       0.80708000
    17  C          0.21853000       0.50607000       0.27112000
    18  C          0.78147000       0.49393000       0.72888000
    19  C          0.07023000       0.48777000       0.31672000
    20  C          0.92977000       0.51223000       0.68328000
    21  C          0.04304000       0.43867000       0.22642000
    22  C          0.95696000       0.56133000       0.77358000
    23  C          0.17654000       0.29977000       0.16673000
    24  C          0.82346000       0.70023000       0.83327000
    25  C          0.32314000       0.31747000       0.11922000
    26  C          0.67686000       0.68253000       0.88078000
    27  C          0.30914000       0.42397000       0.04222000
    28  C          0.69086000       0.57603000       0.95778000
    29  C          0.02753000       0.54567000       0.15012000
    30  C          0.97247000       0.45433000       0.84988000
    31  C          0.35343000       0.36647000       0.20872000
    32  C          0.64657000       0.63353000       0.79128000
    33  C          0.15954000       0.66436000       0.02073000
    34  C          0.84046000       0.33564000       0.97927000
    35  C          0.20393000       0.86597000       0.95548000
    36  C          0.79607000       0.13403000       0.04452000
    37  C          0.14664000       0.88757000       0.87698000
    38  C          0.85336000       0.11243000       0.12302000
    39  C          0.17584000       0.97777000       0.80798000
    40  C          0.82416000       0.02223000       0.19202000
    41  C          0.26004000       0.04353000       0.81607000
    42  C          0.73996000       0.95647000       0.18393000
    43  C          0.30954000       0.02133000       0.89738000
    44  C          0.69046000       0.97867000       0.10262000
    45  C          0.24324000       0.56167000       0.35962000
    46  C          0.75676000       0.43833000       0.64038000
    47  C          0.29773000       0.49897000       0.52092000
    48  C          0.70227000       0.50103000       0.47908000
    49  C          0.29434000       0.62307000       0.55262000
    50  C          0.70566000       0.37693000       0.44738000
    51  C          0.32824000       0.63076000       0.63923000
    52  C          0.67176000       0.36924000       0.36077000
    53  C          0.36414000       0.51846000       0.69193000
    54  C          0.63586000       0.48154000       0.30807000
    55  C          0.36424000       0.40057000       0.65642000
    56  C          0.63576000       0.59943000       0.34358000
    57  H          0.12020000       0.70080000       0.23070000
    58  H          0.87980000       0.29920000       0.76930000
    59  H          0.29530000       0.62540000       0.16350000
    60  H          0.70470000       0.37460000       0.83650000
    61  H          0.98620000       0.42540000       0.35550000
    62  H          0.01380000       0.57460000       0.64450000
    63  H          0.07790000       0.42100000       0.36500000
    64  H          0.92210000       0.57900000       0.63500000
    65  H          0.95060000       0.42730000       0.25560000
    66  H          0.04940000       0.57270000       0.74440000
    67  H          0.15910000       0.26630000       0.11120000
    68  H          0.84090000       0.73370000       0.88880000
    69  H          0.18560000       0.23300000       0.21500000
    70  H          0.81440000       0.76700000       0.78500000
    71  H          0.40650000       0.23000000       0.08120000
    72  H          0.59350000       0.77000000       0.91880000
    73  H          0.40160000       0.43500000       0.01210000
    74  H          0.59840000       0.56500000       0.98790000
    75  H          0.29250000       0.39270000       0.98530000
    76  H          0.70750000       0.60730000       0.01470000
    77  H          0.00850000       0.51560000       0.09410000
    78  H          0.99150000       0.48440000       0.90590000
    79  H          0.94300000       0.63280000       0.18770000
    80  H          0.05700000       0.36720000       0.81230000
    81  H          0.36560000       0.29830000       0.25570000
    82  H          0.63440000       0.70170000       0.74430000
    83  H          0.44580000       0.37770000       0.17890000
    84  H          0.55420000       0.62230000       0.82110000
    85  H          0.08770000       0.84160000       0.87210000
    86  H          0.91230000       0.15840000       0.12790000
    87  H          0.13780000      -0.00540000       0.75310000
    88  H          0.86220000       0.00540000       0.24690000
    89  H          0.28340000       0.10350000       0.76630000
    90  H          0.71660000       0.89650000       0.23370000
    91  H          0.36430000       0.06970000       0.90590000
    92  H          0.63570000       0.93030000       0.09410000
    93  H          0.26830000       0.70050000       0.51500000
    94  H          0.73170000       0.29950000       0.48500000
    95  H          0.32730000       0.71450000       0.66280000
    96  H          0.67270000       0.28550000       0.33720000
    97  H          0.38780000       0.52290000       0.75240000
    98  H          0.61220000       0.47710000       0.24760000
    99  H          0.38820000       0.32210000       0.69320000
   100  H          0.61180000       0.67790000       0.30680000
   101  H          0.27063500       0.39096800       0.42562300
   102  H          0.72936500       0.60903200       0.57437700
   103  H          0.20773800       0.78476700       0.08502500
   104  H          0.79226200       0.21523300       0.91497500
   105  O          0.37553000       0.91638000       0.11652000
   106  O          0.62447000       0.08362000       0.88348000
   107  O          0.14003000       0.95188000       0.22362000
   108  O          0.85997000       0.04812000       0.77638000
   109  O          0.23893000       0.21612000       0.43142000
   110  O          0.76107000       0.78388000       0.56858000
   111  O          0.30363000       0.15332000       0.56702000
   112  O          0.69637000       0.84668000       0.43298000
   113  O          0.43823000       0.90897000       0.29062000
   114  O          0.56177000       0.09103000       0.70938000
   115  C          0.26674000       0.93857000       0.20882000
   116  C          0.73326000       0.06143000       0.79118000
   117  C          0.30774000       0.94547000       0.30362000
   118  C          0.69226000       0.05453000       0.69638000
   119  C          0.17764000      -0.00633000       0.41052000
   120  C          0.82236000       0.00633000       0.58948000
   121  C          0.22274000       0.01413000       0.50002000
   122  C          0.77726000      -0.01413000       0.49998000
   123  C          0.25694000       0.13703000       0.49482000
   124  C          0.74306000       0.86297000       0.50518000
   125  H          0.13660000       0.92700000       0.42500000
   126  H          0.86340000       0.07300000       0.57500000
   127  H          0.09900000       0.08040000       0.40870000
   128  H          0.90100000       0.91960000       0.59130000
   129  H          0.31200000       0.93220000       0.49450000
   130  H          0.68800000       0.06780000       0.50550000
   131  H          0.14270000       0.02540000       0.56780000
   132  H          0.85730000       0.97460000       0.43220000
   133  H          0.32164200       0.23883900       0.56432700
   134  H          0.67835800       0.76116100       0.43567300
   135  H          0.32604400       0.92246200       0.04503200
   136  H          0.67395600       0.07753800       0.95496800
