data_RIZXUX
_symmetry_space_group_name_H-M    'P1'
_symmetry_Int_Tables_number       1
loop_
_symmetry_equiv_pos_site_id
_symmetry_equiv_pos_as_xyz
1 x,y,z
_cell_length_a                   17.90653
_cell_length_b                   15.40023
_cell_length_c                   7.394301
_cell_angle_alpha                90.0
_cell_angle_beta                 90.0
_cell_angle_gamma                90.0
loop_
_atom_site_label
_atom_site_type_symbol
_atom_site_fract_x
_atom_site_fract_y
_atom_site_fract_z
     1  Cl         0.40217900       0.21641900       0.91192000
     2  Cl         0.59782100       0.78358100       0.91192000
     3  Cl         0.09782100       0.71641900       0.08808000
     4  Cl         0.90217900       0.28358100       0.08808000
     5  Cl         0.65564700       0.83820900       0.53802000
     6  Cl         0.34435300       0.16179100       0.53802000
     7  Cl         0.84435300       0.33820900       0.46198000
     8  Cl         0.15564700       0.66179100       0.46198000
     9  O          0.74923000       0.22184000       0.74488000
    10  O          0.25077000       0.77816000       0.74488000
    11  O          0.75077000       0.72184000       0.25512000
    12  O          0.24923000       0.27816000       0.25512000
    13  C          0.56262000       0.05643000       0.73066000
    14  C          0.43738000       0.94357000       0.73066000
    15  C          0.93738000       0.55643000       0.26934000
    16  C          0.06262000       0.44357000       0.26934000
    17  C          0.62523000       0.11243000       0.73336000
    18  C          0.37477000       0.88757000       0.73336000
    19  C          0.87477000       0.61243000       0.26664000
    20  C          0.12523000       0.38757000       0.26664000
    21  C          0.57332000       0.96467000       0.70536000
    22  C          0.42668000       0.03533000       0.70536000
    23  C          0.92668000       0.46467000       0.29464000
    24  C          0.07332000       0.53533000       0.29464000
    25  C          0.48922000       0.09083000       0.75245000
    26  C          0.51078000       0.90917000       0.75245000
    27  C          0.01078000       0.59083000       0.24755000
    28  C          0.98922000       0.40917000       0.24755000
    29  C          0.61503000       0.19903000       0.78737000
    30  C          0.38497000       0.80097000       0.78737000
    31  C          0.88497000       0.69903000       0.21263000
    32  C          0.11503000       0.30097000       0.21263000
    33  O          0.68074000       0.32994000       0.83791100
    34  O          0.31926000       0.67006000       0.83791100
    35  O          0.81926000       0.82994000       0.16208900
    36  O          0.18074000       0.17006000       0.16208900
    37  C          0.48433000       0.17563000       0.82466000
    38  C          0.51567000       0.82437000       0.82466000
    39  C          0.01567000       0.67563000       0.17534000
    40  C          0.98433000       0.32437000       0.17534000
    41  C          0.64222000       0.93936000       0.63527000
    42  C          0.35778000       0.06064000       0.63527000
    43  C          0.85778000       0.43936000       0.36473000
    44  C          0.14222000       0.56064000       0.36473000
    45  O          0.82383000       0.11585000       0.65731000
    46  O          0.17617000       0.88415000       0.65731000
    47  O          0.67617000       0.61585000       0.34269000
    48  O          0.32383000       0.38415000       0.34269000
    49  C          0.69543000       0.07864000       0.68497000
    50  C          0.30457000       0.92136000       0.68497000
    51  C          0.80457000       0.57864000       0.31503000
    52  C          0.19543000       0.42136000       0.31503000
    53  C          0.54663000       0.22853000       0.84097000
    54  C          0.45337000       0.77147000       0.84097000
    55  C          0.95337000       0.72853000       0.15903000
    56  C          0.04663000       0.27147000       0.15903000
    57  H          0.54179000       0.28415300       0.88837100
    58  H          0.45821000       0.71584700       0.88837100
    59  H          0.95821000       0.78415300       0.11162900
    60  H          0.04179000       0.21584700       0.11162900
    61  C          0.70333000      -0.00434000       0.62637000
    62  C          0.29667000       0.00434000       0.62637000
    63  C          0.79667000       0.49566000       0.37363000
    64  C          0.20333000       0.50434000       0.37363000
    65  H          0.74884300       0.97651500       0.58084100
    66  H          0.25115700       0.02348500       0.58084100
    67  H          0.75115700       0.47651500       0.41915900
    68  H          0.24884300       0.52348500       0.41915900
    69  C          0.76103000       0.13826000       0.69241000
    70  C          0.23897000       0.86174000       0.69241000
    71  C          0.73897000       0.63826000       0.30759000
    72  C          0.26103000       0.36174000       0.30759000
    73  C          0.68094000       0.25665000       0.79419000
    74  C          0.31906000       0.74335000       0.79419000
    75  C          0.81906000       0.75665000       0.20581000
    76  C          0.18094000       0.24335000       0.20581000
    77  S          0.75689900       0.63030120       0.80993000
    78  S          0.24310100       0.36969880       0.80993000
    79  S          0.74310100       0.13030120       0.19007000
    80  S          0.25689900       0.86969880       0.19007000
    81  S          0.89243110       0.52467130       0.80242000
    82  S          0.10756890       0.47532870       0.80242000
    83  S          0.60756890       0.02467130       0.19758000
    84  S          0.39243110       0.97532870       0.19758000
    85  S          0.98827900       0.68728180       0.67913000
    86  S          0.01172100       0.31271820       0.67913000
    87  S          0.51172100       0.18728180       0.32087000
    88  S          0.48827900       0.81271820       0.32087000
    89  S          0.85325130       0.79931150       0.67723000
    90  S          0.14674870       0.20068850       0.67723000
    91  S          0.64674870       0.29931150       0.32277000
    92  S          0.35325130       0.70068850       0.32277000
    93  C          0.85293000       0.62814000       0.76717000
    94  C          0.14707000       0.37186000       0.76717000
    95  C          0.64707000       0.12814000       0.23283000
    96  C          0.35293000       0.87186000       0.23283000
    97  C          0.89143000       0.69705000       0.71707000
    98  C          0.10857000       0.30295000       0.71707000
    99  C          0.60857000       0.19705000       0.28293000
   100  C          0.39143000       0.80295000       0.28293000
   101  C          0.75245000       0.52036000       0.86121200
   102  C          0.24755000       0.47964000       0.86121200
   103  C          0.74755000       0.02036000       0.13878800
   104  C          0.25245000       0.97964000       0.13878800
   105  H          0.70675100       0.49535700       0.89121600
   106  H          0.29324900       0.50464300       0.89121600
   107  H          0.79324900      -0.00464300       0.10878400
   108  H          0.20675100       0.00464300       0.10878400
   109  C          0.81105000       0.47365000       0.85821100
   110  C          0.18895000       0.52635000       0.85821100
   111  C          0.68895000       0.97365000       0.14178900
   112  C          0.31105000       0.02635000       0.14178900
   113  H          0.80955200       0.41458700       0.88505600
   114  H          0.19044800       0.58541300       0.88505600
   115  H          0.69044800       0.91458700       0.11494400
   116  H          0.30955200       0.08541300       0.11494400
   117  C          0.00005000       0.78299000       0.64691400
   118  C         -0.00005000       0.21701000       0.64691400
   119  C          0.49995000       0.28299000       0.35308600
   120  C          0.50005000       0.71701000       0.35308600
   121  H          0.04899000       0.80221100       0.63654100
   122  H          0.95101000       0.19778900       0.63654100
   123  H          0.45101000       0.30221100       0.36345900
   124  H          0.54899000       0.69778900       0.36345900
   125  C          0.94517000       0.84328000       0.63161500
   126  C          0.05483000       0.15672000       0.63161500
   127  C          0.55483000       0.34328000       0.36838500
   128  C          0.44517000       0.65672000       0.36838500
   129  H          0.95381400       0.90085700       0.60095600
   130  H          0.04618600       0.09914300       0.60095600
   131  H          0.54618600       0.40085700       0.39904400
   132  H          0.45381400       0.59914300       0.39904400
   133  O          0.00000000      -0.00000000       0.36920000
   134  O          0.50000000       0.50000000       0.63080000
   135  C          0.94711100       0.03181700       0.25430000
   136  C          0.05288900       0.96818300       0.25430000
   137  C          0.55288900       0.53181700       0.74570000
   138  C          0.44711100       0.46818300       0.74570000
   139  H          0.94385700       0.09400800       0.27343200
   140  H          0.05614300       0.90599200       0.27343200
   141  H          0.55614300       0.59400800       0.72656800
   142  H          0.44385700       0.40599200       0.72656800
   143  H          0.89934600       0.00720100       0.28948000
   144  H          0.10065400      -0.00720100       0.28948000
   145  H          0.60065400       0.50720100       0.71052000
   146  H          0.39934600       0.49279900       0.71052000
   147  C          0.95728000       0.01631000       0.05520000
   148  C          0.04272000       0.98369000       0.05520000
   149  C          0.54272000       0.51631000       0.94480000
   150  C          0.45728000       0.48369000       0.94480000
   151  H          0.95078900       0.06914900      -0.01492700
   152  H          0.04921100       0.93085100      -0.01492700
   153  H          0.54921100       0.56914900       0.01492700
   154  H          0.45078900       0.43085100       0.01492700
   155  H          0.92346000       0.97196000       0.00971600
   156  H          0.07654000       0.02804000       0.00971600
   157  H          0.57654000       0.47196000      -0.00971600
   158  H          0.42346000       0.52804000      -0.00971600
