data_ROBFAS
_symmetry_space_group_name_H-M    'P1'
_symmetry_Int_Tables_number       1
loop_
_symmetry_equiv_pos_site_id
_symmetry_equiv_pos_as_xyz
1 x,y,z
_cell_length_a                   6.63124
_cell_length_b                   12.12717
_cell_length_c                   12.39257
_cell_angle_alpha                97.6572
_cell_angle_beta                 95.4712
_cell_angle_gamma                102.8742
loop_
_atom_site_label
_atom_site_type_symbol
_atom_site_fract_x
_atom_site_fract_y
_atom_site_fract_z
     1  C          0.80119170       0.71639900       0.65618900
     2  C          0.19880830       0.28360100       0.34381100
     3  C          0.87678170       0.63241900       0.58901900
     4  C          0.12321830       0.36758100       0.41098100
     5  N          0.78162150       0.58311800       0.48751800
     6  N          0.21837850       0.41688200       0.51248200
     7  C          0.60971170       0.61358900       0.45046900
     8  C          0.39028830       0.38641100       0.54953100
     9  N          0.52810150       0.69019800       0.51132800
    10  N          0.47189850       0.30980200       0.48867200
    11  H          0.40830000       0.71061600       0.47991500
    12  H          0.59170000       0.28938400       0.52008500
    13  C          0.62307170       0.74220900       0.61419900
    14  C          0.37692830       0.25779100       0.38580100
    15  N          0.04659160       0.60063900       0.62619800
    16  N          0.95340840       0.39936100       0.37380200
    17  H          0.08730000       0.54471400       0.58841300
    18  H          0.91270000       0.45528600       0.41158700
    19  H          0.10830000       0.62431400       0.69531400
    20  H          0.89170000       0.37568600       0.30468600
    21  N          0.50990160       0.56699900       0.35051800
    22  N          0.49009840       0.43300100       0.64948200
    23  H          0.56630000       0.52201400       0.31011400
    24  H          0.43370000       0.47798600       0.68988600
    25  H          0.39030000       0.58681400       0.32821300
    26  H          0.60970000       0.41318600       0.67178700
    27  C          0.52022180       0.82693100       0.67201100
    28  C          0.47977820       0.17306900       0.32798900
    29  H          0.56520000       0.83780000       0.75200000
    30  H          0.43480000       0.16220000       0.24800000
    31  H          0.36710000       0.79630000       0.65930000
    32  H          0.63290000       0.20370000       0.34070000
    33  C          0.57442000       0.94244110       0.63209110
    34  C          0.42558000       0.05755890       0.36790890
    35  H          0.50340000      -0.00470000       0.67100000
    36  H          0.49660000       0.00470000       0.32900000
    37  H          0.52900000       0.93210000       0.55300000
    38  H          0.47100000       0.06790000       0.44700000
    39  H          0.72560000       0.97410000       0.64660000
    40  H          0.27440000       0.02590000       0.35340000
    41  C          0.91546170       0.77101100       0.76627900
    42  C          0.08453830       0.22898900       0.23372100
    43  C          0.89072000       0.71488110       0.85682100
    44  C          0.10928000       0.28511890       0.14317900
    45  H          0.79850000       0.64120000       0.84820000
    46  H          0.20150000       0.35880000       0.15180000
    47  C         -0.00098000       0.76513130       0.95978110
    48  C          0.00098000       0.23486870       0.04021890
    49  H         -0.01860000       0.72650000       0.02130000
    50  H          0.01860000       0.27350000       0.97870000
    51  C          0.13262000       0.87218130       0.97060110
    52  C          0.86738000       0.12781870       0.02939890
    53  C          0.16132000       0.93009120       0.88254120
    54  C          0.83868000       0.06990880       0.11745880
    55  H          0.25380000       0.00370000       0.89170000
    56  H          0.74620000      -0.00370000       0.10830000
    57  C          0.05232190       0.87868110       0.77995110
    58  C          0.94767810       0.12131890       0.22004890
    59  H          0.07150000       0.91750000       0.71860000
    60  H          0.92850000       0.08250000       0.28140000
    61  Cl         0.26879600       0.93483400       0.09926300
    62  Cl         0.73120400       0.06516600       0.90073700
    63  O          0.21601150       0.77182800       0.43045800
    64  O          0.78398850       0.22817200       0.56954200
    65  O          0.12532140       0.63710800       0.28201800
    66  O          0.87467860       0.36289200       0.71798200
    67  C          0.10142180       0.72529110       0.34336110
    68  C          0.89857820       0.27470890       0.65663890
    69  C          0.92198000       0.77419120       0.30760120
    70  C          0.07802000       0.22580880       0.69239880
    71  H          0.84700000       0.74640000       0.23640000
    72  H          0.15300000       0.25360000       0.76360000
    73  C          0.86448000       0.85453120       0.37164140
    74  C          0.13552000       0.14546880       0.62835860
    75  H          0.93770000       0.88340000       0.44310000
    76  H          0.06230000       0.11660000       0.55690000
    77  H          0.75000000       0.88350000       0.34630000
    78  H          0.25000000       0.11650000       0.65370000
    79  O          0.89125840       0.54533900       0.10801800
    80  O          0.10874160       0.45466100       0.89198200
    81  H          0.96970000       0.57771600       0.18201600
    82  H          0.03030000       0.42228400       0.81798400
    83  O          0.67126850       0.41934800       0.18500800
    84  O          0.32873150       0.58065200       0.81499200
    85  C          0.73678000       0.45607120       0.10420100
    86  C          0.26322000       0.54392880       0.89579900
    87  C          0.64958000       0.40255140      -0.01100110
    88  C          0.35042000       0.59744860       0.01100110
    89  H          0.69130000       0.44220000       0.93060000
    90  H          0.30870000       0.55780000       0.06940000
    91  C          0.51718000       0.30242150       0.96625870
    92  C          0.48282000       0.69757850       0.03374130
    93  H          0.47430000       0.26190000       0.02390000
    94  H          0.52570000       0.73810000       0.97610000
    95  H          0.46400000       0.27020000       0.89210000
    96  H          0.53600000       0.72980000       0.10790000
