data_ROCDOD
_symmetry_space_group_name_H-M    'P1'
_symmetry_Int_Tables_number       1
loop_
_symmetry_equiv_pos_site_id
_symmetry_equiv_pos_as_xyz
1 x,y,z
_cell_length_a                   7.36251
_cell_length_b                   7.898711
_cell_length_c                   14.6842
_cell_angle_alpha                82.0172
_cell_angle_beta                 80.1192
_cell_angle_gamma                65.2672
loop_
_atom_site_label
_atom_site_type_symbol
_atom_site_fract_x
_atom_site_fract_y
_atom_site_fract_z
     1  C          0.97157000       0.50633000       0.17849150
     2  C          0.02843000       0.49367000       0.82150850
     3  C          0.98387000       0.63493000       0.12744140
     4  C          0.01613000       0.36507000       0.87255860
     5  C         -0.00633000       0.78503000       0.07220140
     6  C          0.00633000       0.21497000       0.92779860
     7  C         -0.00203000       0.92253000       0.02580140
     8  C          0.00203000       0.07747000       0.97419860
     9  C          0.95657000       0.35553000       0.24099140
    10  C          0.04343000       0.64447000       0.75900860
    11  C          0.03343000       0.17553000       0.21270150
    12  C          0.96657000       0.82447000       0.78729850
    13  H          0.09540000       0.15180000       0.15080000
    14  H          0.90460000       0.84820000       0.84920000
    15  C          0.02033000       0.03133000       0.27376160
    16  C          0.97967000       0.96867000       0.72623840
    17  H          0.07280000       0.90860000       0.25370000
    18  H          0.92720000       0.09140000       0.74630000
    19  C          0.93177000       0.06333000       0.36391150
    20  C          0.06823000       0.93667000       0.63608850
    21  H          0.92450000       0.96280000       0.40600000
    22  H          0.07550000       0.03720000       0.59400000
    23  C          0.85377000       0.24193000       0.39281150
    24  C          0.14623000       0.75807000       0.60718850
    25  H          0.79210000       0.26430000       0.45480000
    26  H          0.20790000       0.73570000       0.54520000
    27  C          0.86497000       0.38803000       0.33205150
    28  C          0.13503000       0.61197000       0.66794850
    29  H          0.81050000       0.51080000       0.35220000
    30  H          0.18950000       0.48920000       0.64780000
    31  F          0.61242000       0.16605180       0.15077800
    32  F          0.38758000       0.83394820       0.84922200
    33  F          0.58002000       0.88636830       0.27188100
    34  F          0.41998000       0.11363170       0.72811900
    35  F          0.37749190       0.96167830       0.44306900
    36  F          0.62250810       0.03832170       0.55693100
    37  F          0.21342000       0.31475190       0.49526900
    38  F          0.78658000       0.68524810       0.50473100
    39  F          0.25022000       0.59415170       0.37619900
    40  F          0.74978000       0.40584830       0.62380100
    41  C          0.45123000       0.53443000       0.19610140
    42  C          0.54877000       0.46557000       0.80389860
    43  C          0.46763000       0.65703000       0.14201140
    44  C          0.53237000       0.34297000       0.85798860
    45  C          0.48343000       0.79893000       0.08153140
    46  C          0.51657000       0.20107000       0.91846860
    47  C          0.49453000       0.92753000       0.02911140
    48  C          0.50547000       0.07247000       0.97088860
    49  C          0.43253000       0.38803000       0.25951130
    50  C          0.56747000       0.61197000       0.74048870
    51  C          0.51443000       0.20483000       0.23556130
    52  C          0.48557000       0.79517000       0.76443870
    53  C          0.49713000       0.06253000       0.29638150
    54  C          0.50287000       0.93747000       0.70361850
    55  C          0.39603000       0.09993000       0.38346140
    56  C          0.60397000       0.90007000       0.61653860
    57  C          0.31343000       0.27923000       0.41022140
    58  C          0.68657000       0.72077000       0.58977860
    59  C          0.33233000       0.42033000       0.34890140
    60  C          0.66767000       0.57967000       0.65109860
