data_RODCUK
_symmetry_space_group_name_H-M    'P1'
_symmetry_Int_Tables_number       1
loop_
_symmetry_equiv_pos_site_id
_symmetry_equiv_pos_as_xyz
1 x,y,z
_cell_length_a                   9.7803
_cell_length_b                   10.3833
_cell_length_c                   13.0814
_cell_angle_alpha                97.1356
_cell_angle_beta                 110.8461
_cell_angle_gamma                102.1969
loop_
_atom_site_label
_atom_site_type_symbol
_atom_site_fract_x
_atom_site_fract_y
_atom_site_fract_z
     1  C          0.19907150       0.13120150       0.17976110
     2  C          0.80092850       0.86879850       0.82023890
     3  C          0.34442150       0.18544150       0.18502110
     4  C          0.65557850       0.81455850       0.81497890
     5  C          0.46390160       0.15325160       0.26497120
     6  C          0.53609840       0.84674840       0.73502880
     7  H          0.56550000       0.19290000       0.27390000
     8  H          0.43450000       0.80710000       0.72610000
     9  C          0.43760180       0.06454170       0.33175120
    10  C          0.56239820       0.93545830       0.66824880
    11  H          0.52040000       0.04310000       0.38490000
    12  H          0.47960000       0.95690000       0.61510000
    13  C          0.28960180       0.00746170       0.32039120
    14  C          0.71039820      -0.00746170       0.67960880
    15  H          0.27110000       0.94510000       0.36450000
    16  H          0.72890000       0.05490000       0.63550000
    17  C          0.16905170       0.04107150       0.24511120
    18  C          0.83094830       0.95892850       0.75488880
    19  H          0.06780000       0.00360000       0.23800000
    20  H          0.93220000      -0.00360000       0.76200000
    21  N          0.07570130       0.16883120       0.10635900
    22  N          0.92429870       0.83116880       0.89364100
    23  C          0.08466150       0.25348140       0.03955110
    24  C          0.91533850       0.74651860       0.96044890
    25  N          0.21766130       0.30713120       0.03052900
    26  N          0.78233870       0.69286880       0.96947100
    27  B          0.37376170       0.27082170       0.09812130
    28  B          0.62623830       0.72917830       0.90187870
    29  O          0.49822110       0.39035110       0.15410800
    30  O          0.50177890       0.60964890       0.84589200
    31  H          0.52160000       0.42630000       0.10630000
    32  H          0.47840000       0.57370000       0.89370000
    33  O          0.41235110       0.19143110       0.01249800
    34  O          0.58764890       0.80856890       0.98750200
    35  C          0.31071160       0.08872160       0.93441880
    36  C          0.68928840       0.91127840       0.06558120
    37  O          0.18145120       0.04407120       0.92735900
    38  O          0.81854880       0.95592880       0.07264100
    39  C          0.36822000       0.03092000       0.85265850
    40  C          0.63178000       0.96908000       0.14734150
    41  H          0.29040000       0.95050000       0.80070000
    42  H          0.70960000       0.04950000       0.19930000
    43  H          0.46090000       0.00600000       0.89320000
    44  H          0.53910000      -0.00600000       0.10680000
    45  H          0.39100000       0.09820000       0.81050000
    46  H          0.60900000       0.90180000       0.18950000
    47  C          0.95148840       0.28978150       0.97441890
    48  C          0.04851160       0.71021850       0.02558110
    49  Br         0.76727800       0.23973200      -0.00632200
    50  Br         0.23272200       0.76026800       0.00632200
    51  C          0.95887840       0.36359150       0.89809880
    52  C          0.04112160       0.63640850       0.10190120
    53  H          0.87000000       0.38460000       0.85240000
    54  H          0.13000000       0.61540000       0.14760000
    55  N          0.09151140       0.40869130       0.88525900
    56  N          0.90848860       0.59130870       0.11474100
    57  C          0.22425160       0.38118150       0.95016890
    58  C          0.77574840       0.61881850       0.04983110
    59  O          0.34074120       0.41933120       0.93519100
    60  O          0.65925880       0.58066880       0.06480900
    61  C          0.08992180       0.45857160       0.78517880
    62  C          0.91007820       0.54142840       0.21482120
    63  H          0.18940000       0.52290000       0.80160000
    64  H          0.81060000       0.47710000       0.19840000
    65  H          0.01010000       0.50620000       0.76160000
    66  H         -0.01010000       0.49380000       0.23840000
    67  C          0.05812170       0.33872170       0.69209880
    68  C          0.94187830       0.66127830       0.30790120
    69  O          0.00576180       0.22433140       0.69463890
    70  O         -0.00576180       0.77566860       0.30536110
    71  O          0.09376120       0.38102120       0.61064200
    72  O          0.90623880       0.61897880       0.38935800
    73  C          0.06998190       0.28152000       0.50919870
    74  C          0.93001810       0.71848000       0.49080130
    75  C          0.13672000       0.37032000       0.44548850
    76  C          0.86328000       0.62968000       0.55451150
    77  H          0.08440000       0.44100000       0.43060000
    78  H          0.91560000       0.55900000       0.56940000
    79  H          0.12350000       0.31540000       0.37430000
    80  H          0.87650000       0.68460000       0.62570000
    81  H          0.24540000       0.41210000       0.49030000
    82  H          0.75460000       0.58790000       0.50970000
    83  C          0.15862000       0.17912000       0.54236840
    84  C          0.84138000       0.82088000       0.45763160
    85  H          0.26250000       0.22620000       0.59600000
    86  H          0.73750000       0.77380000       0.40400000
    87  H          0.16230000       0.12810000       0.47550000
    88  H          0.83770000       0.87190000       0.52450000
    89  H          0.10840000       0.11680000       0.57700000
    90  H          0.89160000       0.88320000       0.42300000
    91  C          0.90078000       0.21733000       0.44426830
    92  C          0.09922000       0.78267000       0.55573170
    93  H          0.85970000       0.16560000       0.48970000
    94  H          0.14030000       0.83440000       0.51030000
    95  H          0.88390000       0.15670000       0.37460000
    96  H          0.11610000       0.84330000       0.62540000
    97  H          0.84940000       0.28800000       0.42660000
    98  H          0.15060000       0.71200000       0.57340000
    99  O          0.26125130       0.49909140       0.25688100
   100  O          0.73874870       0.50090860       0.74311900
   101  O          0.51452130       0.54405140       0.33015110
   102  O          0.48547870       0.45594860       0.66984890
   103  H          0.50050000       0.50040000       0.26710000
   104  H          0.49950000       0.49960000       0.73290000
   105  C          0.38435190       0.56109180       0.32919140
   106  C          0.61564810       0.43890820       0.67080860
   107  C          0.40683000       0.66502000       0.42892190
   108  C          0.59317000       0.33498000       0.57107810
   109  H          0.30750000       0.67120000       0.42730000
   110  H          0.69250000       0.32880000       0.57270000
   111  H          0.46520000       0.75300000       0.42650000
   112  H          0.53480000       0.24700000       0.57350000
   113  H          0.46240000       0.63870000       0.49800000
   114  H          0.53760000       0.36130000       0.50200000
