data_ROHFED
_symmetry_space_group_name_H-M    'P1'
_symmetry_Int_Tables_number       1
loop_
_symmetry_equiv_pos_site_id
_symmetry_equiv_pos_as_xyz
1 x,y,z
_cell_length_a                   6.97804
_cell_length_b                   14.88699
_cell_length_c                   7.84386
_cell_angle_alpha                90.0
_cell_angle_beta                 110.9913
_cell_angle_gamma                90.0
loop_
_atom_site_label
_atom_site_type_symbol
_atom_site_fract_x
_atom_site_fract_y
_atom_site_fract_z
     1  Br         0.72441400       0.15606200       0.31010400
     2  Br         0.77558600       0.65606200       0.18989600
     3  Br         0.27558600       0.84393800       0.68989600
     4  Br         0.22441400       0.34393800       0.81010400
     5  O          0.67473000       0.95450840       0.36203000
     6  O          0.82527000       0.45450840       0.13797000
     7  O          0.32527000       0.04549160       0.63797000
     8  O          0.17473000       0.54549160       0.86203000
     9  C          0.60064000       0.06606190       0.13914000
    10  C          0.89936000       0.56606190       0.36086000
    11  C          0.39936000       0.93393810       0.86086000
    12  C          0.10064000       0.43393810       0.63914000
    13  O          0.49183000       0.83163870       0.10793000
    14  O          0.00817000       0.33163870       0.39207000
    15  O          0.50817000       0.16836130       0.89207000
    16  O         -0.00817000       0.66836130       0.60793000
    17  C          0.59474000       0.97993810       0.18963000
    18  C          0.90526000       0.47993810       0.31037000
    19  C          0.40526000       0.02006190       0.81037000
    20  C          0.09474000       0.52006190       0.68963000
    21  C          0.49154000       0.90832810       0.05083000
    22  C          0.00846000       0.40832810       0.44917000
    23  C          0.50846000       0.09167190       0.94917000
    24  C         -0.00846000       0.59167190       0.55083000
    25  H          0.65850000       0.90270000       0.37450000
    26  H          0.84150000       0.40270000       0.12550000
    27  H          0.34150000       0.09730000       0.62550000
    28  H          0.15850000       0.59730000       0.87450000
    29  O          0.68204000       0.79737850       0.52673000
    30  O          0.81796000       0.29737850       0.97327000
    31  O          0.31796000       0.20262150       0.47327000
    32  O          0.18204000       0.70262150       0.02673000
    33  H          0.77150000       0.76170000       0.51350000
    34  H          0.72850000       0.26170000      -0.01350000
    35  H          0.22850000       0.23830000       0.48650000
    36  H          0.27150000       0.73830000       0.01350000
    37  H          0.59260000       0.77070000       0.49050000
    38  H          0.90740000       0.27070000       0.00950000
    39  H          0.40740000       0.22930000       0.50950000
    40  H          0.09260000       0.72930000      -0.00950000
    41  O          0.85423000       0.82758850       0.89717000
    42  O          0.64577000       0.32758850       0.60283000
    43  O          0.14577000       0.17241150       0.10283000
    44  O          0.35423000       0.67241150       0.39717000
    45  C          0.88624000       0.98338000       0.81806000
    46  C          0.61376000       0.48338000       0.68194000
    47  C          0.11376000       0.01662000       0.18194000
    48  C          0.38624000       0.51662000       0.31806000
    49  C          0.92494000       0.91388000       0.94396000
    50  C          0.57506000       0.41388000       0.55604000
    51  C          0.07506000       0.08612000       0.05604000
    52  C          0.42494000       0.58612000       0.44396000
    53  C          0.03895000       0.93098000       0.12624000
    54  C          0.46105000       0.43098000       0.37376000
    55  C          0.96105000       0.06902000       0.87376000
    56  C          0.53895000       0.56902000       0.62624000
    57  H          0.79560000       0.82170000       0.79640000
    58  H          0.70440000       0.32170000       0.70360000
    59  H          0.20440000       0.17830000       0.20360000
    60  H          0.29560000       0.67830000       0.29640000
    61  H          0.06640000       0.88980000       0.20940000
    62  H          0.43360000       0.38980000       0.29060000
    63  H          0.93360000       0.11020000       0.79060000
    64  H          0.56640000       0.61020000       0.70940000
    65  H          0.81250000       0.97370000       0.69750000
    66  H          0.68750000       0.47370000       0.80250000
    67  H          0.18750000       0.02630000       0.30250000
    68  H          0.31250000       0.52630000       0.19750000
