data_ROKGEH
_symmetry_space_group_name_H-M    'P1'
_symmetry_Int_Tables_number       1
loop_
_symmetry_equiv_pos_site_id
_symmetry_equiv_pos_as_xyz
1 x,y,z
_cell_length_a                   7.30672
_cell_length_b                   17.83795
_cell_length_c                   18.26955
_cell_angle_alpha                95.46701
_cell_angle_beta                 92.24701
_cell_angle_gamma                100.75001
loop_
_atom_site_label
_atom_site_type_symbol
_atom_site_fract_x
_atom_site_fract_y
_atom_site_fract_z
     1  Br         0.85987800       0.43901300       0.77593300
     2  Br         0.14012200       0.56098700       0.22406700
     3  Cl         0.83648150       0.42225500       0.59480500
     4  Cl         0.16351850       0.57774500       0.40519500
     5  O          0.11135000       0.72532000       0.75432000
     6  O          0.88865000       0.27468000       0.24568000
     7  C          0.93105000       0.52152000       0.72093000
     8  C          0.06895000       0.47848000       0.27907000
     9  C          0.91976000       0.51132000       0.64532000
    10  C          0.08024000       0.48868000       0.35468000
    11  C          0.05116000       0.65542000       0.71424000
    12  C          0.94884000       0.34458000       0.28576000
    13  C         -0.00254000       0.59433000       0.75723000
    14  C          0.00254000       0.40567000       0.24277000
    15  H          0.00630000       0.60260000       0.80950000
    16  H         -0.00630000       0.39740000       0.19050000
    17  C         -0.02223000       0.57273000       0.60603000
    18  C          0.02223000       0.42727000       0.39397000
    19  H          0.97000000       0.56490000       0.55380000
    20  H          0.03000000       0.43510000       0.44620000
    21  C          0.04627000       0.64493000       0.64023000
    22  C          0.95373000       0.35507000       0.35977000
    23  H          0.08900000       0.68640000       0.61230000
    24  H          0.91100000       0.31360000       0.38770000
    25  C          0.18757000       0.78693000       0.71214000
    26  C          0.81243000       0.21307000       0.28786000
    27  H          0.10210000       0.78740000       0.66940000
    28  H          0.89790000       0.21260000       0.33060000
    29  H          0.30880000       0.77930000       0.69500000
    30  H          0.69120000       0.22070000       0.30500000
    31  H          0.20310000       0.83590000       0.74300000
    32  H          0.79690000       0.16410000       0.25700000
    33  P          0.75625110       0.96946600       0.21476500
    34  P          0.24374890       0.03053400       0.78523500
    35  P          0.49238130       0.24678500       0.49967400
    36  P          0.50761870       0.75321500       0.50032600
    37  P          0.48737130       0.31782500       0.09055500
    38  P          0.51262870       0.68217500       0.90944500
    39  O          0.61853000       0.97108880       0.14603120
    40  O          0.38147000       0.02891120       0.85396880
    41  O          0.62253000       0.94834880       0.27925130
    42  O          0.37747000       0.05165120       0.72074870
    43  O          0.35283000       0.27916130       0.44835120
    44  O          0.64717000       0.72083870       0.55164880
    45  O          0.40864000       0.23091140       0.05812130
    46  O          0.59136000       0.76908860       0.94187870
    47  O          0.42194000       0.15594130       0.48814120
    48  O          0.57806000       0.84405870       0.51185880
    49  O          0.89463000       0.04019130       0.23369140
    50  O          0.10537000       0.95980870       0.76630860
    51  O          0.36734000       0.33155140       0.15858130
    52  O          0.63266000       0.66844860       0.84141870
    53  O          0.69064000       0.27067160       0.48790140
    54  O          0.30936000       0.72932840       0.51209860
    55  O          0.68984000       0.33725170       0.10321160
    56  O          0.31016000       0.66274830       0.89678840
    57  C          0.44464000       0.04773170       0.30772170
    58  C          0.55536000       0.95226830       0.69227830
    59  C          0.39424000       0.10105180       0.36167180
    60  C          0.60576000       0.89894820       0.63832820
    61  C          0.44084000       0.07179170       0.16933170
    62  C          0.55916000       0.92820830       0.83066830
    63  C          0.38894000       0.13852180       0.14691170
    64  C          0.61106000       0.86147820       0.85308830
    65  C          0.38175000       0.28853190       0.37335170
    66  C          0.61825000       0.71146810       0.62664830
    67  C          0.31844000       0.22569180       0.32164170
    68  C          0.68156000       0.77430820       0.67835830
    69  C          0.24344000       0.14740180       0.34689180
    70  C          0.75656000       0.85259820       0.65310820
    71  H          0.15150000       0.11760000       0.30870000
    72  H          0.84850000       0.88240000       0.69130000
    73  H          0.17700000       0.15470000       0.39250000
    74  H          0.82300000       0.84530000       0.60750000
    75  C          0.57335000       0.04139180       0.12889180
    76  C          0.42665000       0.95860820       0.87110820
    77  C          0.48595000       0.11001190       0.43112180
    78  C          0.51405000       0.88998810       0.56887820
    79  C          0.58104000       0.00795180       0.32890180
    80  C          0.41896000      -0.00795180       0.67109820
    81  C          0.32114000       0.23892180       0.24673170
    82  C          0.67886000       0.76107820       0.75326830
    83  C          0.34894000       0.02903180       0.23084170
    84  C          0.65106000       0.97096820       0.76915830
    85  H          0.22050000       0.03910000       0.23360000
    86  H          0.77950000       0.96090000       0.76640000
    87  H          0.33820000       0.97340000       0.21660000
    88  H          0.66180000       0.02660000       0.78340000
    89  C          0.45785000       0.36197180       0.35749180
    90  C          0.54215000       0.63802820       0.64250820
    91  C          0.24274000       0.17663180       0.18444170
    92  C          0.75726000       0.82336820       0.81555830
    93  H          0.15100000       0.13670000       0.20450000
    94  H          0.84900000       0.86330000       0.79550000
    95  H          0.17510000       0.19950000       0.14700000
    96  H          0.82490000       0.80050000       0.85300000
    97  C          0.46475000       0.37479180       0.28318190
    98  C          0.53525000       0.62520820       0.71681810
    99  C          0.47305000       0.16858190       0.08602180
   100  C          0.52695000       0.83141810       0.91397820
   101  C          0.84925000       0.88510820       0.19261190
   102  C          0.15075000       0.11489180       0.80738810
   103  C          0.39065000       0.31330190       0.23128170
   104  C          0.60935000       0.68669810       0.76871830
   105  C          0.66095000       0.07332000       0.06990190
   106  C          0.33905000       0.92668000       0.93009810
   107  C          0.67785000       0.01932000       0.39743190
   108  C          0.32215000       0.98068000       0.60256810
   109  C          0.62965000       0.07312000       0.45053190
   110  C          0.37035000       0.92688000       0.54946810
   111  C          0.52216000       0.42612000       0.41862000
   112  C          0.47784000       0.57388000       0.58138000
   113  H          0.45520000       0.41420000       0.46280000
   114  H          0.54480000       0.58580000       0.53720000
   115  H          0.49620000       0.47430000       0.40300000
   116  H          0.50380000       0.52570000       0.59700000
   117  H          0.65650000       0.43120000       0.42960000
   118  H          0.34350000       0.56880000       0.57040000
   119  C          0.60775000       0.13912000       0.04746190
   120  C          0.39225000       0.86088000       0.95253810
   121  C          0.38906000       0.36883190       0.02487190
   122  C          0.61094000       0.63116810       0.97512810
   123  C          0.41705000       0.27132000       0.58870190
   124  C          0.58295000       0.72868000       0.41129810
   125  C          0.79985000       0.83798000       0.12712000
   126  C          0.20015000       0.16202000       0.87288000
   127  H          0.70680000       0.84820000       0.09360000
   128  H          0.29320000       0.15180000       0.90640000
   129  C          0.54296000       0.45252000       0.25992000
   130  C          0.45704000       0.54748000       0.74008000
   131  H          0.45690000       0.48740000       0.27160000
   132  H          0.54310000       0.51260000       0.72840000
   133  H          0.55860000       0.44790000       0.20670000
   134  H          0.44140000       0.55210000       0.79330000
   135  H          0.66420000       0.47280000       0.28620000
   136  H          0.33580000       0.52720000       0.71380000
   137  C          0.82746000       0.97408000       0.41282000
   138  C          0.17254000       0.02592000       0.58718000
   139  H          0.94770000       0.00160000       0.39870000
   140  H          0.05230000      -0.00160000       0.60130000
   141  H          0.79640000       0.92350000       0.38440000
   142  H          0.20360000       0.07650000       0.61560000
   143  H          0.83540000       0.96780000       0.46550000
   144  H          0.16460000       0.03220000       0.53450000
   145  C          0.20836000       0.38332000       0.02832000
   146  C          0.79164000       0.61668000       0.97168000
   147  H          0.13220000       0.36630000       0.06670000
   148  H          0.86780000       0.63370000       0.93330000
   149  C         -0.01344000       0.87038000       0.24072000
   150  C          0.01344000       0.12962000       0.75928000
   151  H          0.02070000       0.90240000       0.28560000
   152  H         -0.02070000       0.09760000       0.71440000
   153  C          0.80686000       0.03663000       0.03152000
   154  C          0.19314000       0.96337000       0.96848000
   155  H          0.76650000       0.98060000       0.02620000
   156  H          0.23350000       0.01940000       0.97380000
   157  H          0.92560000       0.05060000       0.06090000
   158  H          0.07440000       0.94940000       0.93910000
   159  H          0.82280000       0.05460000       0.98280000
   160  H          0.17720000       0.94540000       0.01720000
   161  C          0.49817000       0.39382000       0.96818000
   162  C          0.50183000       0.60618000       0.03182000
   163  H          0.62100000       0.38370000       0.96570000
   164  H          0.37900000       0.61630000       0.03430000
   165  C          0.88696000       0.77618000       0.11083000
   166  C          0.11304000       0.22382000       0.88917000
   167  H          0.85280000       0.74360000       0.06620000
   168  H          0.14720000       0.25640000       0.93380000
   169  C          0.72906000       0.09122000       0.52602000
   170  C          0.27094000       0.90878000       0.47398000
   171  H          0.76530000       0.04480000       0.54170000
   172  H          0.23470000       0.95520000       0.45830000
   173  H          0.64550000       0.10970000       0.56120000
   174  H          0.35450000       0.89030000       0.43880000
   175  H          0.84080000       0.13090000       0.52410000
   176  H          0.15920000       0.86910000       0.47590000
   177  C          0.02296000       0.76208000       0.15923000
   178  C         -0.02296000       0.23792000       0.84077000
   179  H          0.08170000       0.71950000       0.14790000
   180  H          0.91830000       0.28050000       0.85210000
   181  C          0.07387000       0.80877000       0.22333000
   182  C          0.92613000       0.19123000       0.77667000
   183  H          0.16920000       0.79920000       0.25590000
   184  H          0.83080000       0.20080000       0.74410000
   185  C          0.69587000       0.17703000       0.98348000
   186  C          0.30413000       0.82297000       0.01652000
   187  H          0.82200000       0.20490000      -0.00090000
   188  H          0.17800000       0.79510000       0.00090000
   189  H          0.62040000       0.21290000       0.96710000
   190  H          0.37960000       0.78710000       0.03290000
   191  H          0.70240000       0.13770000       0.94290000
   192  H          0.29760000       0.86230000       0.05710000
   193  C          0.42798000       0.43343000       0.91518000
   194  C          0.57202000       0.56657000       0.08482000
   195  H          0.50240000       0.45030000       0.87630000
   196  H          0.49760000       0.54970000       0.12370000
   197  C          0.14157000       0.42302000       0.97417000
   198  C          0.85843000       0.57698000       0.02583000
   199  H          0.01830000       0.43300000       0.97570000
   200  H         -0.01830000       0.56700000       0.02430000
   201  C          0.25138000       0.44793000       0.91918000
   202  C          0.74862000       0.55207000       0.08082000
   203  H          0.20420000       0.47570000       0.88330000
   204  H          0.79580000       0.52430000       0.11670000
   205  C          0.32838000       0.31453000       0.73022000
   206  C          0.67162000       0.68547000       0.26978000
   207  H          0.29770000       0.32960000       0.77880000
   208  H          0.70230000       0.67040000       0.22120000
   209  C          0.51127000       0.25203000       0.64902000
   210  C          0.48873000       0.74797000       0.35098000
   211  H          0.60860000       0.22390000       0.64200000
   212  H          0.39140000       0.77610000       0.35800000
   213  C          0.46438000       0.27353000       0.71952000
   214  C          0.53562000       0.72647000       0.28048000
   215  H          0.52830000       0.25930000       0.76070000
   216  H          0.47170000       0.74070000       0.23930000
   217  C          0.27789000       0.31224000       0.59993000
   218  C          0.72211000       0.68776000       0.40007000
   219  H          0.21060000       0.32550000       0.55900000
   220  H          0.78940000       0.67450000       0.44100000
   221  C          0.23531000       0.33434000       0.67133000
   222  C          0.76469000       0.66566000       0.32867000
   223  H          0.14030000       0.36350000       0.67910000
   224  H          0.85970000       0.63650000       0.32090000
