data_ROKNAH
_symmetry_space_group_name_H-M    'P1'
_symmetry_Int_Tables_number       1
loop_
_symmetry_equiv_pos_site_id
_symmetry_equiv_pos_as_xyz
1 x,y,z
_cell_length_a                   6.843916
_cell_length_b                   8.3723
_cell_length_c                   8.4242
_cell_angle_alpha                104.843
_cell_angle_beta                 109.292
_cell_angle_gamma                101.192
loop_
_atom_site_label
_atom_site_type_symbol
_atom_site_fract_x
_atom_site_fract_y
_atom_site_fract_z
     1  N          0.40223000       0.88882000       0.07892000
     2  C          0.27774000      -0.00767000      -0.01563000
     3  H          0.29140000       0.10230000       0.06730000
     4  H          0.12450000       0.92430000       0.93070000
     5  C          0.34284000       0.02294000       0.83477000
     6  H          0.31640000       0.92440000       0.73460000
     7  H          0.25940000       0.09140000       0.78360000
     8  N          0.58413000       0.11732000       0.90118000
     9  C          0.70594000       0.00763000      -0.01173000
    10  H          0.66540000       0.90530000       0.88870000
    11  H          0.86240000       0.06130000       0.03930000
    12  C          0.64354000      -0.02207000       0.13783000
    13  H          0.68440000       0.08430000       0.23230000
    14  H          0.71440000       0.90630000       0.17730000
    15  C          0.36614000       0.89764000       0.25003000
    16  H          0.41340000       0.01440000       0.31730000
    17  H          0.45740000       0.83530000       0.30740000
    18  C          0.13534000       0.81593000       0.23174000
    19  O          0.13753000       0.82892000       0.38762000
    20  O         -0.02243000       0.75132000       0.08623000
    21  C          0.33775000       0.70293000       0.95976000
    22  H          0.17160000       0.65840000       0.92660000
    23  H          0.40950000       0.63940000       0.02550000
    24  H          0.38760000       0.69750000       0.86460000
    25  C          0.63324000       0.12414000       0.73827000
    26  H          0.54540000       0.18040000       0.68160000
    27  H          0.57440000      -0.01070000       0.63670000
    28  C          0.87374000       0.20963000       0.77417000
    29  O          0.89223000       0.22552000       0.63318000
    30  O          0.02353000       0.24933000       0.92127000
    31  C          0.64025000       0.30093000       0.02654000
    32  H          0.54050000       0.34740000       0.96360000
    33  H          0.79850000       0.35540000       0.06640000
    34  H          0.61750000       0.30040000       0.13140000
    35  O          0.86436000       0.60292000       0.41093000
    36  H         -0.02670000       0.70060000       0.40060000
    37  O          0.79807000       0.79852000       0.60553000
    38  C          0.76856000       0.65013000       0.51603000
    39  C          0.60586000       0.50213000       0.52593000
    40  H          0.64860000       0.53030000       0.66340000
    41  O          0.59787000       0.33262000       0.42912000
    42  H          0.70150000       0.31240000       0.48950000
    43  C          0.37646000       0.51583000       0.44343000
    44  H          0.37960000       0.62540000       0.51240000
    45  O          0.32587000       0.50532000       0.26262000
    46  C          0.21386000       0.37263000       0.45793000
    47  H          0.24350000       0.41940000       0.20340000
    48  O          0.24567000       0.38812000       0.62522000
    49  H          0.13750000       0.32650000       0.62840000
    50  O          0.07267000       0.25922000       0.32712000
