data_ROKQEN
_symmetry_space_group_name_H-M    'P1'
_symmetry_Int_Tables_number       1
loop_
_symmetry_equiv_pos_site_id
_symmetry_equiv_pos_as_xyz
1 x,y,z
_cell_length_a                   3.92413
_cell_length_b                   13.04048
_cell_length_c                   12.41815
_cell_angle_alpha                90.0
_cell_angle_beta                 92.211
_cell_angle_gamma                90.0
loop_
_atom_site_label
_atom_site_type_symbol
_atom_site_fract_x
_atom_site_fract_y
_atom_site_fract_z
     1  Cl        -0.02218000       0.16075700       0.15280700
     2  Cl         0.47782000       0.83924300       0.65280700
     3  C          0.06178000       0.11742000       0.02372000
     4  C          0.56178000       0.88258000       0.52372000
     5  C          0.20789000       0.02212000       0.00963000
     6  C          0.70789000       0.97788000       0.50963000
     7  H          0.26349000       0.98048000       0.06853000
     8  H          0.76349000       0.01952000       0.56853000
     9  C          0.26951000      -0.00992000       0.90566000
    10  C          0.76951000       0.00992000       0.40566000
    11  H          0.36561000       0.92598000       0.89466000
    12  H          0.86561000       0.07402000       0.39466000
    13  C          0.18998000       0.05242000       0.81817000
    14  C          0.68998000       0.94758000       0.31817000
    15  H          0.23568000       0.03042000       0.74897000
    16  H          0.73568000       0.96958000       0.24897000
    17  C          0.04147000       0.14802000       0.83358000
    18  C          0.54147000       0.85198000       0.33358000
    19  C         -0.02333000       0.18052000       0.93788000
    20  C          0.47667000       0.81948000       0.43788000
    21  H          0.87717000       0.24412000       0.94938000
    22  H          0.37717000       0.75588000       0.44938000
    23  C          0.95647000       0.21412000       0.73888000
    24  C          0.45647000       0.78588000       0.23888000
    25  O          0.00228000       0.18822000       0.64738000
    26  O          0.50228000       0.81178000       0.14738000
    27  O          0.82158000       0.30222000       0.76548000
    28  O          0.32158000       0.69778000       0.26548000
    29  H          0.74711000       0.33141600       0.71096000
    30  H          0.24711000       0.66858400       0.21096000
    31  O          0.66638000       0.43132000       0.61988000
    32  O          0.16638000       0.56868000       0.11988000
    33  N          0.63646000       0.40732000       0.51658000
    34  N          0.13646000       0.59268000       0.01658000
    35  C          0.49181000       0.31752000       0.48567000
    36  C         -0.00819000       0.68248000       0.98567000
    37  H          0.42081000       0.27192000       0.53777000
    38  H          0.92081000       0.72808000       0.03777000
    39  C          0.44829000       0.29263000       0.37987000
    40  C          0.94829000       0.70737000       0.87987000
    41  H          0.34969000       0.23033000       0.35967000
    42  H          0.84969000       0.76967000       0.85967000
    43  C          0.55101100       0.36043000       0.30287000
    44  C          0.05101100       0.63957000       0.80287000
    45  H          0.52161100       0.34483000       0.22997000
    46  H          0.02161100       0.65517000       0.72997000
    47  C          0.69899000       0.45203000       0.33537000
    48  C          0.19899000       0.54797000       0.83537000
    49  H          0.76799000       0.49843000       0.28367000
    50  H          0.26799000       0.50157000       0.78367000
    51  C          0.74657000       0.47612000       0.44368000
    52  C          0.24657000       0.52388000       0.94368000
    53  C          0.90731000       0.57242000       0.48587000
    54  C          0.40731000       0.42758000       0.98587000
    55  H         -0.02613800       0.61439000       0.42667000
    56  H          0.47386200       0.38561000       0.92667000
    57  H          0.10494000       0.55573000       0.53048200
    58  H          0.60494000       0.44427000       0.03048200
    59  H          0.74692500       0.60921000       0.52768200
    60  H          0.24692500       0.39079000       0.02768200
