data_ROKTIY
_symmetry_space_group_name_H-M    'P1'
_symmetry_Int_Tables_number       1
loop_
_symmetry_equiv_pos_site_id
_symmetry_equiv_pos_as_xyz
1 x,y,z
_cell_length_a                   7.12276
_cell_length_b                   10.64341
_cell_length_c                   10.910113
_cell_angle_alpha                94.0319
_cell_angle_beta                 100.8239
_cell_angle_gamma                107.1058
loop_
_atom_site_label
_atom_site_type_symbol
_atom_site_fract_x
_atom_site_fract_y
_atom_site_fract_z
     1  Cl         0.85131100       0.18644900       0.90144700
     2  Cl         0.14868900       0.81355100       0.09855300
     3  Cl         0.26101130       0.21477110       0.08348800
     4  Cl         0.73898870       0.78522890       0.91651200
     5  N          0.85073000       0.42002190       0.63750190
     6  N          0.14927000       0.57997810       0.36249810
     7  N          0.68293000       0.42271190       0.55842000
     8  N          0.31707000       0.57728810       0.44158000
     9  N          0.38083000       0.31232000       0.42852000
    10  N          0.61917000       0.68768000       0.57148000
    11  H          0.27730000       0.24301800       0.39930000
    12  H          0.72270000       0.75698200       0.60070000
    13  H          0.36440000       0.38881500       0.42130000
    14  H          0.63560000       0.61118500       0.57870000
    15  N          0.56913000       0.18587180       0.51721180
    16  N          0.43087000       0.81412820       0.48278820
    17  N          0.77204000       0.06922000       0.59922000
    18  N          0.22796000       0.93078000       0.40078000
    19  H          0.88420000       0.06430000       0.64020000
    20  H          0.11580000       0.93570000       0.35980000
    21  H          0.67830000      -0.00171800       0.56120000
    22  H          0.32170000       0.00171800       0.43880000
    23  C          0.07243000       0.31692000       0.74642000
    24  C          0.92757000       0.68308000       0.25358000
    25  C          0.07593000       0.26482000       0.86032000
    26  C          0.92407000       0.73518000       0.13968000
    27  C          0.25624000       0.27903000       0.94272000
    28  C          0.74376000       0.72097000       0.05728000
    29  C          0.43534000       0.34673000       0.91363000
    30  C          0.56466000       0.65327000       0.08637000
    31  H          0.55660000       0.35580000       0.96870000
    32  H          0.44340000       0.64420000       0.03130000
    33  C          0.43484000       0.40093000       0.80313000
    34  C          0.56516000       0.59907000       0.19687000
    35  H          0.55580000       0.44750000       0.78370000
    36  H          0.44420000       0.55250000       0.21630000
    37  C          0.25504000       0.38613000       0.72073000
    38  C          0.74496000       0.61387000       0.27927000
    39  H          0.25640000       0.42360000       0.64620000
    40  H          0.74360000       0.57640000       0.35380000
    41  C          0.88133000       0.30682000       0.65742000
    42  C          0.11867000       0.69318000       0.34258000
    43  C          0.54774000       0.30652000       0.50452000
    44  C          0.45226000       0.69348000       0.49548000
    45  C          0.74033000       0.18532000       0.59152000
    46  C          0.25967000       0.81468000       0.40848000
    47  O          0.00983000       0.90618000       0.69082000
    48  O         -0.00983000       0.09382000       0.30918000
    49  C          0.15754000       0.87857000       0.73263000
    50  C          0.84246000       0.12143000       0.26737000
    51  C          0.35145000       0.98327000       0.78584000
    52  C          0.64855000       0.01673000       0.21416000
    53  H          0.45300000       0.94310000       0.81480000
    54  H          0.54700000       0.05690000       0.18520000
    55  H          0.39020000       0.03700000       0.72210000
    56  H          0.60980000       0.96300000       0.27790000
    57  H          0.33690000       0.03780000       0.85510000
    58  H          0.66310000       0.96220000       0.14490000
    59  C          0.15365000       0.73937000       0.73603000
    60  C          0.84635000       0.26063000       0.26397000
    61  H          0.28590000       0.73710000       0.77270000
    62  H          0.71410000       0.26290000       0.22730000
    63  H          0.06110000       0.69760000       0.78570000
    64  H          0.93890000       0.30240000       0.21430000
    65  H          0.11130000       0.69310000       0.65190000
    66  H          0.88870000       0.30690000       0.34810000
