data_ROLGOO
_symmetry_space_group_name_H-M    'P1'
_symmetry_Int_Tables_number       1
loop_
_symmetry_equiv_pos_site_id
_symmetry_equiv_pos_as_xyz
1 x,y,z
_cell_length_a                   16.2865
_cell_length_b                   8.5783
_cell_length_c                   10.6503
_cell_angle_alpha                90.0
_cell_angle_beta                 104.942
_cell_angle_gamma                90.0
loop_
_atom_site_label
_atom_site_type_symbol
_atom_site_fract_x
_atom_site_fract_y
_atom_site_fract_z
     1  S          0.73858600       0.57929120       0.87077110
     2  S          0.76141400       0.07929120       0.62922890
     3  S          0.26141400       0.42070880       0.12922890
     4  S          0.23858600       0.92070880       0.37077110
     5  N          0.60056170       0.28254310       0.97835260
     6  N          0.89943830       0.78254310       0.52164740
     7  N          0.39943830       0.71745690       0.02164740
     8  N          0.10056170       0.21745690       0.47835260
     9  N          0.45561170       0.23711320       0.05643260
    10  N          0.04438830       0.73711320       0.44356740
    11  N          0.54438830       0.76288680       0.94356740
    12  N          0.95561170       0.26288680       0.55643260
    13  C          0.60192000       0.17604000       0.07303000
    14  C          0.89808000       0.67604000       0.42697000
    15  C          0.39808000       0.82396000       0.92697000
    16  C          0.10192000       0.32396000       0.57303000
    17  C          0.38462000       0.21354000       0.09143000
    18  C          0.11538000       0.71354000       0.40857000
    19  C          0.61538000       0.78646000       0.90857000
    20  C          0.88462000       0.28646000       0.59143000
    21  C          0.66992000       0.30374000       0.93793000
    22  C          0.83008000       0.80374000       0.56207000
    23  C          0.33008000       0.69626000       0.06207000
    24  C          0.16992000       0.19626000       0.43793000
    25  C          0.52532000       0.15084000       0.11333000
    26  C          0.97468000       0.65084000       0.38667000
    27  C          0.47468000       0.84916000       0.88667000
    28  C          0.02532000       0.34916000       0.61333000
    29  C          0.67592000       0.08964000       0.13253000
    30  C          0.82408000       0.58964000       0.36747000
    31  C          0.32408000       0.91036000       0.86747000
    32  C          0.17592000       0.41036000       0.63253000
    33  C          0.52463000       0.03824000       0.20963000
    34  C          0.97537000       0.53824000       0.29037000
    35  C          0.47537000       0.96176000       0.79037000
    36  C          0.02463000       0.46176000       0.70963000
    37  C          0.37913000       0.10245000       0.18694000
    38  C          0.12087000       0.60245000       0.31306000
    39  C          0.62087000       0.89755000       0.81306000
    40  C          0.87913000       0.39755000       0.68694000
    41  C          0.66343000       0.41865000       0.82954000
    42  C          0.83657000       0.91865000       0.67046000
    43  C          0.33657000       0.58135000       0.17046000
    44  C          0.16343000       0.08135000       0.32954000
    45  C          0.74592000       0.22145000      -0.00866000
    46  C          0.75408000       0.72145000       0.50866000
    47  C          0.25408000       0.77855000       0.00866000
    48  C          0.24592000       0.27855000       0.49134000
    49  C          0.74873000       0.11645000       0.08764000
    50  C          0.75127000       0.61645000       0.41236000
    51  C          0.25127000       0.88355000       0.91236000
    52  C          0.24873000       0.38355000       0.58764000
    53  C          0.44823000       0.01615000       0.24404000
    54  C          0.05177000       0.51615000       0.25596000
    55  C          0.55177000      -0.01615000       0.75596000
    56  C          0.94823000       0.48385000       0.74404000
    57  C          0.69142000       0.69195000       0.97784000
    58  C          0.80858000       0.19195000       0.52216000
    59  C          0.30858000       0.30805000       0.02216000
    60  C          0.19142000       0.80805000       0.47784000
    61  C          0.67323000       0.97845000       0.23084000
    62  C          0.82677000       0.47845000       0.26916000
    63  C          0.32677000       0.02155000       0.76916000
    64  C          0.17323000       0.52155000       0.73084000
    65  C          0.60143000       0.95305000       0.26704000
    66  C          0.89857000       0.45305000       0.23296000
    67  C          0.39857000       0.04695000       0.73296000
    68  C          0.10143000       0.54695000       0.76704000
    69  H          0.32720000       0.09740000       0.20230000
    70  H          0.17280000       0.59740000       0.29770000
    71  H          0.67280000       0.90260000       0.79770000
    72  H          0.82720000       0.40260000       0.70230000
    73  H          0.67620000       0.36940000       0.74730000
    74  H          0.82380000       0.86940000       0.75270000
    75  H          0.32380000       0.63060000       0.25270000
    76  H          0.17620000       0.13060000       0.24730000
    77  H          0.79430000       0.24150000       0.96240000
    78  H          0.70570000       0.74150000       0.53760000
    79  H          0.20570000       0.75850000       0.03760000
    80  H          0.29430000       0.25850000       0.46240000
    81  H          0.73830000       0.76350000       0.02440000
    82  H          0.76170000       0.26350000       0.47560000
    83  H          0.26170000       0.23650000       0.97560000
    84  H          0.23830000       0.73650000       0.52440000
    85  H          0.79620000       0.06140000       0.12030000
    86  H          0.70380000       0.56140000       0.37970000
    87  H          0.20380000       0.93860000       0.87970000
    88  H          0.29620000       0.43860000       0.62030000
    89  H          0.72530000       0.91250000       0.26440000
    90  H          0.77470000       0.41250000       0.23560000
    91  H          0.27470000       0.08750000       0.73560000
    92  H          0.22530000       0.58750000       0.76440000
    93  H          0.60320000       0.45340000       0.79830000
    94  H          0.89680000       0.95340000       0.70170000
    95  H          0.39680000       0.54660000       0.20170000
    96  H          0.10320000       0.04660000       0.29830000
    97  H          0.67820000       0.61950000       0.04940000
    98  H          0.82180000       0.11950000       0.45060000
    99  H          0.32180000       0.38050000       0.95060000
   100  H          0.17820000       0.88050000       0.54940000
   101  H          0.59930000       0.88350000       0.33440000
   102  H          0.90070000       0.38350000       0.16560000
   103  H          0.40070000       0.11650000       0.66560000
   104  H          0.09930000       0.61650000       0.83440000
   105  H          0.45030000       0.93650000       0.31540000
   106  H          0.04970000       0.43650000       0.18460000
   107  H          0.54970000       0.06350000       0.68460000
   108  H          0.95030000       0.56350000       0.81540000
   109  Cl         0.57543100       0.30110170       0.48137140
   110  Cl         0.92456900       0.80110170       0.01862860
   111  Cl         0.42456900       0.69889830       0.51862860
   112  Cl         0.07543100       0.19889830       0.98137140
   113  C          0.53295000       0.52821300       0.49138000
   114  C          0.96705000       0.02821300       0.00862000
   115  C          0.46705000       0.47178700       0.50862000
   116  C          0.03295000       0.97178700      -0.00862000
   117  H          0.53540000       0.56070000       0.40560000
   118  H          0.96460000       0.06070000       0.09440000
   119  H          0.46460000       0.43930000       0.59440000
   120  H          0.03540000       0.93930000       0.90560000
   121  H          0.53350000       0.60190000       0.56570000
   122  H          0.96650000       0.10190000       0.93430000
   123  H          0.46650000       0.39810000       0.43430000
   124  H          0.03350000       0.89810000       0.06570000
   125  H          0.46540000       0.44070000       0.59560000
   126  H          0.03460000       0.94070000       0.90440000
   127  H          0.53460000       0.55930000       0.40440000
   128  H          0.96540000       0.05930000       0.09560000
   129  H          0.46750000       0.39990000       0.43570000
   130  H          0.03250000       0.89990000       0.06430000
   131  H          0.53250000       0.60010000       0.56430000
   132  H          0.96750000       0.10010000       0.93570000
   133  O          0.56262000       0.55145000       0.18733000
   134  O          0.93738000       0.05145000       0.31267000
   135  O          0.43738000       0.44855000       0.81267000
   136  O          0.06262000       0.94855000       0.68733000
   137  H          0.53530000       0.61460000       0.13950000
   138  H          0.96470000       0.11460000       0.36050000
   139  H          0.46470000       0.38540000       0.86050000
   140  H          0.03530000       0.88540000       0.63950000
   141  H          0.54340000       0.48270000       0.14550000
   142  H          0.95660000       0.98270000       0.35450000
   143  H          0.45660000       0.51730000       0.85450000
   144  H          0.04340000       0.01730000       0.64550000
