data_ROLKUC
_symmetry_space_group_name_H-M    'P1'
_symmetry_Int_Tables_number       1
loop_
_symmetry_equiv_pos_site_id
_symmetry_equiv_pos_as_xyz
1 x,y,z
_cell_length_a                   3.6913
_cell_length_b                   14.9814
_cell_length_c                   13.2413
_cell_angle_alpha                90.0
_cell_angle_beta                 94.94
_cell_angle_gamma                90.0
loop_
_atom_site_label
_atom_site_type_symbol
_atom_site_fract_x
_atom_site_fract_y
_atom_site_fract_z
     1  O          0.41830000       0.43448000       0.39197000
     2  O          0.91830000       0.56552000       0.89197000
     3  O          0.20840000       0.14889000       0.34768000
     4  O          0.70840000       0.85111000       0.84768000
     5  N          0.63930000       0.34189000       0.51077000
     6  N          0.13930000       0.65811000       0.01077000
     7  H          0.74704100       0.38419100       0.54519100
     8  H          0.24704100       0.61580900       0.04519100
     9  N          0.31930000       0.29219000       0.37177000
    10  N          0.81930000       0.70781000       0.87177000
    11  H          0.20559900       0.30303800       0.31359100
    12  H          0.70559900       0.69696200       0.81359100
    13  C          0.45930000       0.36119000       0.42348000
    14  C         -0.04070000       0.63881000       0.92348000
    15  C          0.33830000       0.20561000       0.40159000
    16  C          0.83830000       0.79439000       0.90159000
    17  C          0.51030000       0.18901100       0.49809000
    18  C          0.01030000       0.81098900      -0.00191000
    19  H          0.51879400       0.13211800       0.52611300
    20  H          0.01879400       0.86788200       0.02611300
    21  C          0.66030000       0.25931000       0.54789000
    22  C          0.16030000       0.74069000       0.04789000
    23  H          0.78550300       0.25004500       0.61096800
    24  H          0.28550300       0.74995500       0.11096800
    25  O          0.10050000       0.94901100       0.50541000
    26  O          0.60050000       0.05098900       0.00541000
    27  O          0.60140000       0.74341000       0.29349000
    28  O          0.10140000       0.25659000       0.79349000
    29  N          0.83130000       0.84559000       0.39959000
    30  N          0.33130000       0.15441000       0.89959000
    31  H          0.86900600       0.80506200       0.44536100
    32  H          0.36900600       0.19493800       0.94536100
    33  N          0.86040000      -0.00848900       0.35511000
    34  N          0.36040000       0.00848900       0.85511000
    35  H          0.92008200       0.04600600       0.36830800
    36  H          0.42008200       0.95399400       0.86830800
    37  C          0.93750000       0.92981100       0.42291100
    38  C          0.43750000       0.07018900       0.92291100
    39  C          0.69450000       0.97171200       0.26831200
    40  C          0.19450000       0.02828800       0.76831200
    41  H          0.64499300       0.01761800       0.22194600
    42  H          0.14499300       0.98238200       0.72194600
    43  C          0.59150000       0.89091300       0.24131200
    44  C          0.09150000       0.10908700       0.74131200
    45  H          0.46599500       0.88013300       0.17841000
    46  H         -0.03400500       0.11986700       0.67841000
    47  C          0.67340000       0.82141100       0.30971000
    48  C          0.17340000       0.17858900       0.80971000
    49  N          0.05630000       0.46908000       0.60547000
    50  N          0.55630000       0.53092000       0.10547000
    51  N          0.39830000       0.51899000       0.73347000
    52  N          0.89830000       0.48101000       0.23347000
    53  H          0.53111600       0.51724400       0.79001200
    54  H          0.03111600       0.48275600       0.29001200
    55  N          0.41130000       0.67389000       0.69538000
    56  N          0.91130000       0.32611000       0.19538000
    57  N          0.36140000       0.81131000       0.63741000
    58  N          0.86140000       0.18869000       0.13741000
    59  H          0.49274400       0.82807600       0.69080400
    60  H         -0.00725600       0.17192400       0.19080400
    61  H          0.28271400       0.85003900       0.59281400
    62  H          0.78271400       0.14996100       0.09281400
    63  N          0.08430000       0.70468000       0.54037000
    64  N          0.58430000       0.29532000       0.04037000
    65  N          0.78830000       0.60238000       0.44347000
    66  N          0.28830000       0.39762000       0.94347000
    67  H          0.72320200       0.64318400       0.39991100
    68  H          0.22320200       0.35681600       0.89991100
    69  H          0.72137400       0.54798400       0.43228300
    70  H          0.22137400       0.45201600       0.93228300
    71  C          0.23430000       0.45151000       0.68739000
    72  C          0.73430000       0.54849000       0.18739000
    73  H          0.24868400       0.39401100       0.71369600
    74  H          0.74868400       0.60598900       0.21369600
    75  C          0.32330000       0.58889000       0.67798000
    76  C          0.82330000       0.41111000       0.17798000
    77  C          0.28130000       0.72731000       0.62418000
    78  C          0.78130000       0.27269000       0.12418000
    79  C         -0.01270000       0.62269000       0.52538000
    80  C          0.48730000       0.37731000       0.02538000
    81  C          0.10130000       0.55911000       0.59548000
    82  C          0.60130000       0.44089000       0.09548000
