data_ROMYIB
_symmetry_space_group_name_H-M    'P1'
_symmetry_Int_Tables_number       1
loop_
_symmetry_equiv_pos_site_id
_symmetry_equiv_pos_as_xyz
1 x,y,z
_cell_length_a                   15.8062
_cell_length_b                   12.414614
_cell_length_c                   14.5494
_cell_angle_alpha                90.0
_cell_angle_beta                 98.69111
_cell_angle_gamma                90.0
loop_
_atom_site_label
_atom_site_type_symbol
_atom_site_fract_x
_atom_site_fract_y
_atom_site_fract_z
     1  Cl         0.01313000       0.04645000       0.09623000
     2  Cl         0.98687000       0.54645000       0.40377000
     3  Cl         0.98687000       0.95355000       0.90377000
     4  Cl         0.01313000       0.45355000       0.59623000
     5  O          0.69552000       0.80682000       0.57792000
     6  O          0.30448000       0.30682000       0.92208000
     7  O          0.30448000       0.19318000       0.42208000
     8  O          0.69552000       0.69318000       0.07792000
     9  B          0.66254000       0.63175000       0.69404000
    10  B          0.33746000       0.13175000       0.80596000
    11  B          0.33746000       0.36825000       0.30596000
    12  B          0.66254000       0.86825000       0.19404000
    13  B          0.76714000       0.67875000       0.72324000
    14  B          0.23286000       0.17875000       0.77676000
    15  B          0.23286000       0.32125000       0.27676000
    16  B          0.76714000       0.82125000       0.22324000
    17  B          0.71503000       0.70024000       0.60894000
    18  B          0.28497000       0.20024000       0.89106000
    19  B          0.28497000       0.29976000       0.39106000
    20  B          0.71503000       0.79976000       0.10894000
    21  B          0.65143000       0.58524000       0.57574000
    22  B          0.34857000       0.08524000       0.92426000
    23  B          0.34857000       0.41476000       0.42426000
    24  B          0.65143000       0.91476000       0.07574000
    25  B          0.66324000       0.49375000       0.66974000
    26  B          0.33676000      -0.00625000       0.83026000
    27  B          0.33676000       0.50625000       0.33026000
    28  B          0.66324000       0.00625000       0.16974000
    29  B          0.74154000       0.54855000       0.76124000
    30  B          0.25846000       0.04855000       0.73876000
    31  B          0.25846000       0.45145000       0.23876000
    32  B          0.74154000       0.95145000       0.26124000
    33  C          0.81923000       0.65504000       0.63233000
    34  C          0.18077000       0.15504000       0.86767000
    35  C          0.18077000       0.34496000       0.36767000
    36  C          0.81923000       0.84496000       0.13233000
    37  B          0.75953000       0.58994000       0.54974000
    38  B          0.24047000       0.08994000       0.95026000
    39  B          0.24047000       0.41006000       0.45026000
    40  B          0.75953000       0.91006000       0.04974000
    41  C          0.71873000       0.47833000       0.58163000
    42  C          0.28127000       0.97833000       0.91837000
    43  C          0.28127000       0.52167000       0.41837000
    44  C          0.71873000       0.02167000       0.08163000
    45  B          0.77454000       0.44954000       0.68364000
    46  B          0.22546000       0.94954000       0.81636000
    47  B          0.22546000       0.55046000       0.31636000
    48  B          0.77454000       0.05046000       0.18364000
    49  B          0.84104000       0.56755000       0.71964000
    50  B          0.15896000       0.06755000       0.78036000
    51  B          0.15896000       0.43245000       0.28036000
    52  B          0.84104000       0.93245000       0.21964000
    53  C          0.67334000       0.82935000       0.48214000
    54  C          0.32666000       0.32935000       0.01786000
    55  C          0.32666000       0.17065000       0.51786000
    56  C          0.67334000       0.67065000       0.98214000
    57  C          0.58255000       0.84867000       0.45304000
    58  C          0.41745000       0.34867000       0.04696000
    59  C          0.41745000       0.15133000       0.54696000
    60  C          0.58255000       0.65133000       0.95304000
    61  C          0.88783000       0.73144000       0.61114000
    62  C          0.11217000       0.23144000       0.88886000
    63  C          0.11217000       0.26856000       0.38886000
    64  C          0.88783000       0.76856000       0.11114000
    65  C          0.95074000       0.76615000       0.68205000
    66  C          0.04926000       0.26615000       0.81795000
    67  C          0.04926000       0.23385000       0.31795000
    68  C          0.95074000       0.73385000       0.18205000
    69  C          0.01734000       0.83486000       0.66087000
    70  C          0.98266000       0.33486000       0.83913000
    71  C          0.98266000       0.16514000       0.33913000
    72  C          0.01734000       0.66514000       0.16087000
    73  C          0.01995000       0.86976000       0.57247000
    74  C          0.98005000       0.36976000       0.92753000
    75  C          0.98005000       0.13024000       0.42753000
    76  C          0.01995000       0.63024000       0.07247000
    77  C          0.95784000       0.83616000       0.50416000
    78  C          0.04216000       0.33616000      -0.00416000
    79  C          0.04216000       0.16384000       0.49584000
    80  C          0.95784000       0.66384000       0.00416000
    81  C          0.89174000       0.76835000       0.52274000
    82  C          0.10826000       0.26835000       0.97726000
    83  C          0.10826000       0.23165000       0.47726000
    84  C          0.89174000       0.73165000       0.02274000
    85  C          0.69543000       0.38763000       0.51333000
    86  C          0.30457000       0.88763000       0.98667000
    87  C          0.30457000       0.61237000       0.48667000
    88  C          0.69543000       0.11237000       0.01333000
    89  C          0.61293000       0.36314000       0.47544000
    90  C          0.38707000       0.86314000       0.02456000
    91  C          0.38707000       0.63686000       0.52456000
    92  C          0.61293000       0.13686000       0.97544000
    93  C          0.59334000       0.27655000       0.41704000
    94  C          0.40666000       0.77655000       0.08296000
    95  C          0.40666000       0.72345000       0.58296000
    96  C          0.59334000       0.22345000       0.91704000
    97  C          0.65655000       0.21145000       0.39524000
    98  C          0.34345000       0.71145000       0.10476000
    99  C          0.34345000       0.78855000       0.60476000
   100  C          0.65655000       0.28855000       0.89524000
   101  C          0.74064000       0.23445000       0.43114000
   102  C          0.25936000       0.73445000       0.06886000
   103  C          0.25936000       0.76555000       0.56886000
   104  C          0.74064000       0.26555000       0.93114000
   105  C          0.75943000       0.32134000       0.48934000
   106  C          0.24057000       0.82134000       0.01066000
   107  C          0.24057000       0.67866000       0.51066000
   108  C          0.75943000       0.17866000       0.98934000
   109  H          0.60663100       0.66894000       0.72223400
   110  H          0.39336900       0.16894000       0.77776600
   111  H          0.39336900       0.33106000       0.27776600
   112  H          0.60663100       0.83106000       0.22223400
   113  H          0.78653500       0.74194900       0.76994100
   114  H          0.21346500       0.24194900       0.73005900
   115  H          0.21346500       0.25805100       0.23005900
   116  H          0.78653500       0.75805100       0.26994100
   117  H          0.58303400       0.59414100       0.52253500
   118  H          0.41696600       0.09414100       0.97746500
   119  H          0.41696600       0.40585900       0.47746500
   120  H          0.58303400       0.90585900       0.02253500
   121  H          0.60903100       0.43024200       0.67353300
   122  H          0.39096900       0.93024200       0.82646700
   123  H          0.39096900       0.56975800       0.32646700
   124  H          0.60903100       0.06975800       0.17353300
   125  H          0.73693400       0.51774500       0.83304100
   126  H          0.26306600       0.01774500       0.66695900
   127  H          0.26306600       0.48225500       0.16695900
   128  H          0.73693400       0.98225500       0.33304100
   129  H          0.76583100       0.60533900       0.47213500
   130  H          0.23416900       0.10533900       0.02786500
   131  H          0.23416900       0.39466100       0.52786500
   132  H          0.76583100       0.89466100       0.97213500
   133  H          0.86224200       0.48485700       0.68074600
   134  H          0.13775800       0.98485700       0.81925400
   135  H          0.13775800       0.51514300       0.31925400
   136  H          0.86224200       0.01514300       0.18074600
   137  H          0.78293000       0.36374200       0.70743300
   138  H          0.21707000       0.86374200       0.79256700
   139  H          0.21707000       0.63625800       0.29256700
   140  H          0.78293000       0.13625800       0.20743300
   141  H          0.89653400       0.57324400       0.76043600
   142  H          0.10346600       0.07324400       0.73956400
   143  H          0.10346600       0.42675600       0.23956400
   144  H          0.89653400       0.92675600       0.26043600
   145  H          0.69094000       0.76915000       0.44694000
   146  H          0.30906000       0.26915000       0.05306000
   147  H          0.30906000       0.23085000       0.55306000
   148  H          0.69094000       0.73085000       0.94694000
   149  H          0.70504000       0.89225000       0.46714000
   150  H          0.29496000       0.39225000       0.03286000
   151  H          0.29496000       0.10775000       0.53286000
   152  H          0.70504000       0.60775000       0.96714000
   153  H          0.57225000       0.86337000       0.38754000
   154  H          0.42775000       0.36337000       0.11246000
   155  H          0.42775000       0.13663000       0.61246000
   156  H          0.57225000       0.63663000       0.88754000
   157  H          0.56485000       0.90937000       0.48634000
   158  H          0.43515000       0.40937000       0.01366000
   159  H          0.43515000       0.09063000       0.51366000
   160  H          0.56485000       0.59063000       0.98634000
   161  H          0.55065000       0.78617000       0.46604000
   162  H          0.44935000       0.28617000       0.03396000
   163  H          0.44935000       0.21383000       0.53396000
   164  H          0.55065000       0.71383000       0.96604000
   165  H          0.94944000       0.74455000       0.74295000
   166  H          0.05056000       0.24455000       0.75705000
   167  H          0.05056000       0.25545000       0.25705000
   168  H          0.94944000       0.75545000       0.24295000
   169  H          0.05994000       0.85656000       0.70847000
   170  H          0.94006000       0.35656000       0.79153000
   171  H          0.94006000       0.14344000       0.29153000
   172  H          0.05994000       0.64344000       0.20847000
   173  H          0.06325000       0.91546000       0.55947000
   174  H          0.93675000       0.41546000       0.94053000
   175  H          0.93675000       0.08454000       0.44053000
   176  H          0.06325000       0.58454000       0.05947000
   177  H          0.95924000       0.85856000       0.44336000
   178  H          0.04076000       0.35856000       0.05664000
   179  H          0.04076000       0.14144000       0.55664000
   180  H          0.95924000       0.64144000       0.94336000
   181  H          0.84954000       0.74795000       0.47424000
   182  H          0.15046000       0.24795000       0.02576000
   183  H          0.15046000       0.25205000       0.52576000
   184  H          0.84954000       0.75205000       0.97424000
   185  H          0.56873000       0.40644000       0.48974000
   186  H          0.43127000       0.90644000       0.01026000
   187  H          0.43127000       0.59356000       0.51026000
   188  H          0.56873000       0.09356000       0.98974000
   189  H          0.53664000       0.26255000       0.39234000
   190  H          0.46336000       0.76255000       0.10766000
   191  H          0.46336000       0.73745000       0.60766000
   192  H          0.53664000       0.23745000       0.89234000
   193  H          0.64345000       0.15215000       0.35664000
   194  H          0.35655000       0.65215000       0.14336000
   195  H          0.35655000       0.84785000       0.64336000
   196  H          0.64345000       0.34785000       0.85664000
   197  H          0.78454000       0.19125000       0.41594000
   198  H          0.21546000       0.69125000       0.08406000
   199  H          0.21546000       0.80875000       0.58406000
   200  H          0.78454000       0.30875000       0.91594000
   201  H          0.81623000       0.33604000       0.51314000
   202  H          0.18377000       0.83604000       0.98686000
   203  H          0.18377000       0.66396000       0.48686000
   204  H          0.81623000       0.16396000       0.01314000
   205  N          0.70623000       0.98753000       0.69513000
   206  N          0.29377000       0.48753000       0.80487000
   207  N          0.29377000       0.01247000       0.30487000
   208  N          0.70623000       0.51247000       0.19513000
   209  C          0.79624000       0.01797000       0.72746000
   210  C          0.20376000       0.51797000       0.77254000
   211  C          0.20376000       0.98203000       0.27254000
   212  C          0.79624000       0.48203000       0.22746000
   213  C          0.84425000       0.04349000       0.65028000
   214  C          0.15575000       0.54349000       0.84972000
   215  C          0.15575000       0.95651000       0.34972000
   216  C          0.84425000       0.45651000       0.15028000
   217  C          0.66425000       0.95846000       0.77814000
   218  C          0.33575000       0.45846000       0.72186000
   219  C          0.33575000       0.04154000       0.22186000
   220  C          0.66425000       0.54154000       0.27814000
   221  C          0.57306000       0.92257000       0.75307000
   222  C          0.42694000       0.42257000       0.74693000
   223  C          0.42694000       0.07743000       0.24693000
   224  C          0.57306000       0.57743000       0.25307000
   225  C          0.65474000       0.06605000       0.63204000
   226  C          0.34526000       0.56605000       0.86796000
   227  C          0.34526000       0.93395000       0.36796000
   228  C          0.65474000       0.43395000       0.13204000
   229  C          0.64096000       0.17295000       0.67696000
   230  C          0.35904000       0.67295000       0.82304000
   231  C          0.35904000       0.82705000       0.32304000
   232  C          0.64096000       0.32705000       0.17696000
   233  H          0.70503800       0.92683300       0.66153500
   234  H          0.29496200       0.42683300       0.83846500
   235  H          0.29496200       0.07316700       0.33846500
   236  H          0.70503800       0.57316700       0.16153500
   237  H          0.82464000       0.95917000       0.76366000
   238  H          0.17536000       0.45917000       0.73634000
   239  H          0.17536000       0.04083000       0.23634000
   240  H          0.82464000       0.54083000       0.26366000
   241  H          0.79734000       0.08017000       0.76796000
   242  H          0.20266000       0.58017000       0.73204000
   243  H          0.20266000       0.91983000       0.23204000
   244  H          0.79734000       0.41983000       0.26796000
   245  H          0.90195000       0.06289000       0.67518000
   246  H          0.09805000       0.56289000       0.82482000
   247  H          0.09805000       0.93711000       0.32482000
   248  H          0.90195000       0.43711000       0.17518000
   249  H          0.81705000       0.10249000       0.61478000
   250  H          0.18295000       0.60249000       0.88522000
   251  H          0.18295000       0.89751000       0.38522000
   252  H          0.81705000       0.39751000       0.11478000
   253  H          0.84475000       0.98149000       0.61088000
   254  H          0.15525000       0.48149000       0.88912000
   255  H          0.15525000       0.01851000       0.38912000
   256  H          0.84475000       0.51851000       0.11088000
   257  H          0.69685000       0.90116000       0.81234000
   258  H          0.30315000       0.40116000       0.68766000
   259  H          0.30315000       0.09884000       0.18766000
   260  H          0.69685000       0.59884000       0.31234000
   261  H          0.66615000       0.02056000       0.81894000
   262  H          0.33385000       0.52056000       0.68106000
   263  H          0.33385000       0.97944000       0.18106000
   264  H          0.66615000       0.47944000       0.31894000
   265  H          0.55006000       0.90547000       0.80877000
   266  H          0.44994000       0.40547000       0.69123000
   267  H          0.44994000       0.09453000       0.19123000
   268  H          0.55006000       0.59453000       0.30877000
   269  H          0.57076000       0.85997000       0.71417000
   270  H          0.42924000       0.35997000       0.78583000
   271  H          0.42924000       0.14003000       0.28583000
   272  H          0.57076000       0.64003000       0.21417000
   273  H          0.54006000       0.97937000       0.72037000
   274  H          0.45994000       0.47937000       0.77963000
   275  H          0.45994000       0.02063000       0.27963000
   276  H          0.54006000       0.52063000       0.22037000
   277  H          0.59944000       0.03425000       0.60954000
   278  H          0.40056000       0.53425000       0.89046000
   279  H          0.40056000       0.96575000       0.39046000
   280  H          0.59944000       0.46575000       0.10954000
   281  H          0.68344000       0.07865000       0.57864000
   282  H          0.31656000       0.57865000       0.92136000
   283  H          0.31656000       0.92135000       0.42136000
   284  H          0.68344000       0.42135000       0.07864000
   285  H          0.60746000       0.21895000       0.63246000
   286  H          0.39254000       0.71895000       0.86754000
   287  H          0.39254000       0.78105000       0.36754000
   288  H          0.60746000       0.28105000       0.13246000
   289  H          0.69526000       0.20615000       0.69786000
   290  H          0.30474000       0.70615000       0.80214000
   291  H          0.30474000       0.79385000       0.30214000
   292  H          0.69526000       0.29385000       0.19786000
   293  H          0.61126000       0.16165000       0.72906000
   294  H          0.38874000       0.66165000       0.77094000
   295  H          0.38874000       0.83835000       0.27094000
   296  H          0.61126000       0.33835000       0.22906000
