data_RONDAA
_symmetry_space_group_name_H-M    'P1'
_symmetry_Int_Tables_number       1
loop_
_symmetry_equiv_pos_site_id
_symmetry_equiv_pos_as_xyz
1 x,y,z
_cell_length_a                   32.0062
_cell_length_b                   5.46984
_cell_length_c                   20.84511
_cell_angle_alpha                90.0
_cell_angle_beta                 128.6903
_cell_angle_gamma                90.0
loop_
_atom_site_label
_atom_site_type_symbol
_atom_site_fract_x
_atom_site_fract_y
_atom_site_fract_z
     1  C          0.61768120       0.65471000       0.14879170
     2  C          0.38231880       0.65471000       0.85120830
     3  C          0.11768120       0.15471000       0.14879170
     4  C          0.88231880       0.15471000       0.85120830
     5  C          0.64893130       0.47741000       0.22036170
     6  C          0.35106870       0.47741000       0.77963830
     7  C          0.14893130      -0.02259000       0.22036170
     8  C          0.85106870      -0.02259000       0.77963830
     9  H          0.67110000       0.37130000       0.21290000
    10  H          0.32890000       0.37130000       0.78710000
    11  H          0.17110000       0.87130000       0.21290000
    12  H          0.82890000       0.87130000       0.78710000
    13  C          0.61174140       0.31311000       0.22382000
    14  C          0.38825860       0.31311000       0.77618000
    15  C          0.11174140       0.81311000       0.22382000
    16  C          0.88825860       0.81311000       0.77618000
    17  H          0.58840000       0.41460000       0.22820000
    18  H          0.41160000       0.41460000       0.77180000
    19  H          0.08840000       0.91460000       0.22820000
    20  H          0.91160000       0.91460000       0.77180000
    21  H          0.63320000       0.20550000       0.27180000
    22  H          0.36680000       0.20550000       0.72820000
    23  H          0.13320000       0.70550000       0.27180000
    24  H          0.86680000       0.70550000       0.72820000
    25  H          0.58990000       0.21410000       0.17370000
    26  H          0.41010000       0.21410000       0.82630000
    27  H          0.08990000       0.71410000       0.17370000
    28  H          0.91010000       0.71410000       0.82630000
    29  C          0.68656130       0.62459000       0.29905180
    30  C          0.31343870       0.62459000       0.70094820
    31  C          0.18656130       0.12459000       0.29905180
    32  C          0.81343870       0.12459000       0.70094820
    33  C          0.74102130       0.63489000       0.33889190
    34  C          0.25897870       0.63489000       0.66110810
    35  C          0.24102130       0.13489000       0.33889190
    36  C          0.75897870       0.13489000       0.66110810
    37  H          0.75520000       0.54430000       0.31760000
    38  H          0.24480000       0.54430000       0.68240000
    39  H          0.25520000       0.04430000       0.31760000
    40  H          0.74480000       0.04430000       0.68240000
    41  C          0.77517150       0.77418900       0.40902000
    42  C          0.22482850       0.77418900       0.59098000
    43  C          0.27517150       0.27418900       0.40902000
    44  C          0.72482850       0.27418900       0.59098000
    45  H          0.81230000       0.77990000       0.43500000
    46  H          0.18770000       0.77990000       0.56500000
    47  H          0.31230000       0.27990000       0.43500000
    48  H          0.68770000       0.27990000       0.56500000
    49  C          0.75527140       0.90469000       0.44124190
    50  C          0.24472860       0.90469000       0.55875810
    51  C          0.25527140       0.40469000       0.44124190
    52  C          0.74472860       0.40469000       0.55875810
    53  H          0.77860000      -0.00130000       0.48980000
    54  H          0.22140000      -0.00130000       0.51020000
    55  H          0.27860000       0.49870000       0.48980000
    56  H          0.72140000       0.49870000       0.51020000
    57  C          0.70121140       0.89799000       0.40238180
    58  C          0.29878860       0.89799000       0.59761820
    59  C          0.20121140       0.39799000       0.40238180
    60  C          0.79878860       0.39799000       0.59761820
    61  H          0.68720000      -0.01100000       0.42390000
    62  H          0.31280000      -0.01100000       0.57610000
    63  H          0.18720000       0.48900000       0.42390000
    64  H          0.81280000       0.48900000       0.57610000
    65  C          0.66737140       0.75959000       0.33236190
    66  C          0.33262860       0.75959000       0.66763810
    67  C          0.16737140       0.25959000       0.33236190
    68  C          0.83262860       0.25959000       0.66763810
    69  H          0.63020000       0.75630000       0.30630000
    70  H          0.36980000       0.75630000       0.69370000
    71  H          0.13020000       0.25630000       0.30630000
    72  H          0.86980000       0.25630000       0.69370000
    73  O          0.64482900       0.72412000       0.12384130
    74  O          0.35517100       0.72412000       0.87615870
    75  O          0.14482900       0.22412000       0.12384130
    76  O          0.85517100       0.22412000       0.87615870
    77  H          0.62401300       0.84620000       0.07931900
    78  H          0.37598700       0.84620000       0.92068100
    79  H          0.12401300       0.34620000       0.07931900
    80  H          0.87598700       0.34620000       0.92068100
    81  O          0.57279800       0.72942000       0.11774110
    82  O          0.42720200       0.72942000       0.88225890
    83  O          0.07279800       0.22942000       0.11774110
    84  O          0.92720200       0.22942000       0.88225890
    85  C          0.38415130       0.17599000       0.34686180
    86  C          0.61584870       0.17599000       0.65313820
    87  C          0.88415130       0.67599000       0.34686180
    88  C          0.11584870       0.67599000       0.65313820
    89  C          0.35274130       0.33421000       0.26988170
    90  C          0.64725870       0.33421000       0.73011830
    91  C          0.85274130       0.83421000       0.26988170
    92  C          0.14725870       0.83421000       0.73011830
    93  H          0.37890000       0.41080000       0.26470000
    94  H          0.62110000       0.41080000       0.73530000
    95  H          0.87890000       0.91080000       0.26470000
    96  H          0.12110000       0.91080000       0.73530000
    97  C          0.32344160       0.53891000       0.27662000
    98  C          0.67655840       0.53891000       0.72338000
    99  C          0.82344160       0.03891000       0.27662000
   100  C          0.17655840       0.03891000       0.72338000
   101  H          0.29920000       0.46860000       0.28530000
   102  H          0.70080000       0.46860000       0.71470000
   103  H          0.79920000       0.96860000       0.28530000
   104  H          0.20080000       0.96860000       0.71470000
   105  H          0.30280000       0.63500000       0.22570000
   106  H          0.69720000       0.63500000       0.77430000
   107  H          0.80280000       0.13500000       0.22570000
   108  H          0.19720000       0.13500000       0.77430000
   109  H          0.34950000       0.64500000       0.32300000
   110  H          0.65050000       0.64500000       0.67700000
   111  H          0.84950000       0.14500000       0.32300000
   112  H          0.15050000       0.14500000       0.67700000
   113  C          0.31642130       0.16658000       0.19631170
   114  C          0.68357870       0.16658000       0.80368830
   115  C          0.81642130       0.66658000       0.19631170
   116  C          0.18357870       0.66658000       0.80368830
   117  C          0.26221130       0.15519000       0.15475180
   118  C          0.73778870       0.15519000       0.84524820
   119  C          0.76221130       0.65519000       0.15475180
   120  C          0.23778870       0.65519000       0.84524820
   121  H          0.24630000       0.25600000       0.17120000
   122  H          0.75370000       0.25600000       0.82880000
   123  H          0.74630000       0.75600000       0.17120000
   124  H          0.25370000       0.75600000       0.82880000
   125  C          0.23050140      -0.00421000       0.08842000
   126  C          0.76949860      -0.00421000       0.91158000
   127  C          0.73050140       0.49579000       0.08842000
   128  C          0.26949860       0.49579000       0.91158000
   129  H          0.19290000      -0.00950000       0.05940000
   130  H          0.80710000      -0.00950000       0.94060000
   131  H          0.69290000       0.49050000       0.05940000
   132  H          0.30710000       0.49050000       0.94060000
   133  C          0.25335150       0.84639000       0.06486190
   134  C          0.74664850       0.84639000       0.93513810
   135  C          0.75335150       0.34639000       0.06486190
   136  C          0.24664850       0.34639000       0.93513810
   137  H          0.23160000       0.73800000       0.01970000
   138  H          0.76840000       0.73800000       0.98030000
   139  H          0.73160000       0.23800000       0.01970000
   140  H          0.26840000       0.23800000       0.98030000
   141  C          0.30771130       0.85459000       0.10681180
   142  C          0.69228870       0.85459000       0.89318820
   143  C          0.80771130       0.35459000       0.10681180
   144  C          0.19228870       0.35459000       0.89318820
   145  H          0.32360000       0.75080000       0.09100000
   146  H          0.67640000       0.75080000       0.90900000
   147  H          0.82360000       0.25080000       0.09100000
   148  H          0.17640000       0.25080000       0.90900000
   149  C          0.33913140       0.01391000       0.17207180
   150  C          0.66086860       0.01391000       0.82792820
   151  C          0.83913140       0.51391000       0.17207180
   152  C          0.16086860       0.51391000       0.82792820
   153  H          0.37660000       0.01930000       0.20070000
   154  H          0.62340000       0.01930000       0.79930000
   155  H          0.87660000       0.51930000       0.20070000
   156  H          0.12340000       0.51930000       0.79930000
   157  O          0.35785800       0.12338000       0.37419120
   158  O          0.64214200       0.12338000       0.62580880
   159  O          0.85785800       0.62338000       0.37419120
   160  O          0.14214200       0.62338000       0.62580880
   161  H          0.37671200      -0.00370000       0.42201700
   162  H          0.62328800      -0.00370000       0.57798300
   163  H          0.87671200       0.49630000       0.42201700
   164  H          0.12328800       0.49630000       0.57798300
   165  O          0.42915900       0.10169000       0.37963120
   166  O          0.57084100       0.10169000       0.62036880
   167  O          0.92915900       0.60169000       0.37963120
   168  O          0.07084100       0.60169000       0.62036880
   169  C          0.55096120       0.44129000       0.89403170
   170  C          0.44903880       0.44129000       0.10596830
   171  C          0.05096120       0.94129000       0.89403170
   172  C          0.94903880       0.94129000       0.10596830
   173  C          0.53557130       0.39321000       0.94211180
   174  C          0.46442870       0.39321000       0.05788820
   175  C          0.03557130       0.89321000       0.94211180
   176  C          0.96442870       0.89321000       0.05788820
   177  H          0.50940000       0.49170000       0.93770000
   178  H          0.49060000       0.49170000       0.06230000
   179  H          0.00940000      -0.00830000       0.93770000
   180  H          0.99060000      -0.00830000       0.06230000
   181  C          0.55914130       0.19951000      -0.00365820
   182  C          0.44085870       0.19951000       0.00365820
   183  C          0.05914130       0.69951000      -0.00365820
   184  C          0.94085870       0.69951000       0.00365820
   185  H          0.54800000       0.16630000       0.02830000
   186  H          0.45200000       0.16630000       0.97170000
   187  H          0.04800000       0.66630000       0.02830000
   188  H          0.95200000       0.66630000       0.97170000
   189  C          0.61086130       0.10451000       0.96029180
   190  C          0.38913870       0.10451000       0.03970820
   191  C          0.11086130       0.60451000       0.96029180
   192  C          0.88913870       0.60451000       0.03970820
   193  H          0.63750000       0.00430000       0.96660000
   194  H          0.36250000       0.00430000       0.03340000
   195  H          0.13750000       0.50430000       0.96660000
   196  H          0.86250000       0.50430000       0.03340000
   197  C          0.58925120       0.29189000       0.90374170
   198  C          0.41074880       0.29189000       0.09625830
   199  C          0.08925120       0.79189000       0.90374170
   200  C          0.91074880       0.79189000       0.09625830
   201  H          0.60060000       0.31790000       0.87170000
   202  H          0.39940000       0.31790000       0.12830000
   203  H          0.10060000       0.81790000       0.87170000
   204  H          0.89940000       0.81790000       0.12830000
   205  C          0.52861130       0.64661000       0.83209170
   206  C          0.47138870       0.64661000       0.16790830
   207  C          0.02861130       0.14661000       0.83209170
   208  C          0.97138870       0.14661000       0.16790830
   209  N          0.48951110       0.78298000       0.81860150
   210  N          0.51048890       0.78298000       0.18139850
   211  N          0.98951110       0.28298000       0.81860150
   212  N          0.01048890       0.28298000       0.18139850
   213  H          0.47081100       0.91970000       0.76951700
   214  H          0.52918900       0.91970000       0.23048300
   215  H          0.97081100       0.41970000       0.76951700
   216  H          0.02918900       0.41970000       0.23048300
   217  H          0.47441200       0.75770000       0.84181700
   218  H          0.52558800       0.75770000       0.15818300
   219  H          0.97441200       0.25770000       0.84181700
   220  H          0.02558800       0.25770000       0.15818300
   221  N          0.59638100       0.05669000       0.00663150
   222  N          0.40361900       0.05669000      -0.00663150
   223  N          0.09638100       0.55669000       0.00663150
   224  N          0.90361900       0.55669000      -0.00663150
   225  O          0.54818800       0.68318000       0.79701120
   226  O          0.45181200       0.68318000       0.20298880
   227  O          0.04818800       0.18318000       0.79701120
   228  O          0.95181200       0.18318000       0.20298880
   229  C          0.44883120       0.41439000       0.60505160
   230  C          0.55116880       0.41439000       0.39494840
   231  C          0.94883120       0.91439000       0.60505160
   232  C          0.05116880       0.91439000       0.39494840
   233  C          0.46707130       0.46951000       0.56214190
   234  C          0.53292870       0.46951000       0.43785810
   235  C          0.96707130       0.96951000       0.56214190
   236  C          0.03292870       0.96951000       0.43785810
   237  H          0.49510000       0.37670000       0.57010000
   238  H          0.50490000       0.37670000       0.42990000
   239  H         -0.00490000       0.87670000       0.57010000
   240  H          0.00490000       0.87670000       0.42990000
   241  C          0.44411140       0.66181000       0.50722000
   242  C          0.55588860       0.66181000       0.49278000
   243  C          0.94411140       0.16181000       0.50722000
   244  C          0.05588860       0.16181000       0.49278000
   245  H          0.45720000       0.69860000       0.47800000
   246  H          0.54280000       0.69860000       0.52200000
   247  H          0.95720000       0.19860000       0.47800000
   248  H          0.04280000       0.19860000       0.52200000
   249  C          0.38684130       0.74151000       0.53397180
   250  C          0.61315870       0.74151000       0.46602820
   251  C          0.88684130       0.24151000       0.53397180
   252  C          0.11315870       0.24151000       0.46602820
   253  H          0.35830000       0.83460000       0.52410000
   254  H          0.64170000       0.83460000       0.47590000
   255  H          0.85830000       0.33460000       0.52410000
   256  H          0.14170000       0.33460000       0.47590000
   257  C          0.40811130       0.55281000       0.59034180
   258  C          0.59188870       0.55281000       0.40965820
   259  C          0.90811130       0.05281000       0.59034180
   260  C          0.09188870       0.05281000       0.40965820
   261  H          0.39440000       0.51950000       0.61880000
   262  H          0.60560000       0.51950000       0.38120000
   263  H          0.89440000       0.01950000       0.61880000
   264  H          0.10560000       0.01950000       0.38120000
   265  C          0.47000120       0.20639000       0.66554170
   266  C          0.52999880       0.20639000       0.33445830
   267  C          0.97000120       0.70639000       0.66554170
   268  C          0.02999880       0.70639000       0.33445830
   269  N          0.50995110       0.07479000       0.68074150
   270  N          0.49004890       0.07479000       0.31925850
   271  N          0.00995110       0.57479000       0.68074150
   272  N          0.99004890       0.57479000       0.31925850
   273  H          0.52201300       0.95330000       0.71411900
   274  H          0.47798700       0.95330000       0.28588100
   275  H          0.02201300       0.45330000       0.71411900
   276  H          0.97798700       0.45330000       0.28588100
   277  H          0.52771200       0.10170000       0.65771600
   278  H          0.47228800       0.10170000       0.34228400
   279  H          0.02771200       0.60170000       0.65771600
   280  H          0.97228800       0.60170000       0.34228400
   281  N          0.40484100       0.79789000       0.49295140
   282  N          0.59515900       0.79789000       0.50704860
   283  N          0.90484100       0.29789000       0.49295140
   284  N          0.09515900       0.29789000       0.50704860
   285  O          0.44947900       0.16798000       0.69884130
   286  O          0.55052100       0.16798000       0.30115870
   287  O          0.94947900       0.66798000       0.69884130
   288  O          0.05052100       0.66798000       0.30115870
