data_RORNIX
_symmetry_space_group_name_H-M    'P1'
_symmetry_Int_Tables_number       1
loop_
_symmetry_equiv_pos_site_id
_symmetry_equiv_pos_as_xyz
1 x,y,z
_cell_length_a                   7.6214
_cell_length_b                   9.0545
_cell_length_c                   11.6686
_cell_angle_alpha                80.582
_cell_angle_beta                 88.212
_cell_angle_gamma                84.072
loop_
_atom_site_label
_atom_site_type_symbol
_atom_site_fract_x
_atom_site_fract_y
_atom_site_fract_z
     1  Br         0.42122418       0.44617718       0.65967413
     2  Br         0.57877582       0.55382282       0.34032587
     3  O          0.58324870       0.85962130       0.59437100
     4  O          0.41675130       0.14037870       0.40562900
     5  O          0.70825850       0.93181130       0.40944900
     6  O          0.29174150       0.06818870       0.59055100
     7  C          0.89381830       0.74192160       0.54984110
     8  C          0.10618170       0.25807840       0.45015890
     9  C          0.20816170       0.56533160       0.61271110
    10  C          0.79183830       0.43466840       0.38728890
    11  C          0.05032180       0.51956160       0.66223120
    12  C          0.94967820       0.48043840       0.33776880
    13  C          0.21383180       0.69574160       0.53240120
    14  C          0.78616820       0.30425840       0.46759880
    15  C          0.05614180       0.78168160       0.50046120
    16  C          0.94385820       0.21831840       0.49953880
    17  C          0.89538830       0.60985160       0.63107120
    18  C          0.10461170       0.39014840       0.36892880
    19  B          0.71988810       0.84710180       0.51679140
    20  B          0.28011190       0.15289820       0.48320860
    21  H          0.32220000       0.72320000       0.50221500
    22  H          0.67780000       0.27680000       0.49778500
    23  H          0.05120000       0.42520000       0.72471500
    24  H          0.94880000       0.57480000       0.27528500
    25  H          0.78680000       0.57520000       0.67001600
    26  H          0.21320000       0.42480000       0.32998400
    27  H          0.06120000       0.86920000       0.44501500
    28  H          0.93880000       0.13080000       0.55498500
    29  H          0.60270000       0.83130000       0.65281900
    30  H          0.39730000       0.16870000       0.34718100
    31  H          0.62170000       0.98330000       0.40420000
    32  H          0.37830000       0.01670000       0.59580000
    33  N          0.64347850       0.81384140       0.82540900
    34  N          0.35652150       0.18615860       0.17459100
    35  N          0.86353840       0.32414140       0.96181890
    36  N          0.13646160       0.67585860       0.03818110
    37  C          0.69205830       0.93694160       0.86555880
    38  C          0.30794170       0.06305840       0.13444120
    39  C          0.72159840       0.93597150       0.98502890
    40  C          0.27840160       0.06402850       0.01497110
    41  C          0.71558820       0.06858170       0.78308880
    42  C          0.28441180       0.93141830       0.21691120
    43  C          0.80580830       0.19571160       0.93635880
    44  C          0.19419170       0.80428840       0.06364120
    45  C          0.77019820       0.19222170       0.81677880
    46  C          0.22980180       0.80777830       0.18322120
    47  C          0.81677820       0.07714180       0.13711130
    48  C          0.18322180       0.92285820       0.86288870
    49  C          0.78011840       0.06894160       0.02068120
    50  C          0.21988160       0.93105840       0.97931880
    51  C          0.62057810       0.69144170       0.90108870
    52  C          0.37942190       0.30855830       0.09891130
    53  C          0.69263820       0.80437170       0.06266120
    54  C          0.30736180       0.19562830       0.93733880
    55  C          0.87628000       0.20648190       0.16227130
    56  C          0.12372000       0.79351810       0.83772870
    57  C          0.89828000       0.32591180       0.07248140
    58  C          0.10172000       0.67408820       0.92751860
    59  C          0.64218000       0.68238170       0.02071130
    60  C          0.35782000       0.31761830       0.97928870
    61  H          0.79980000      -0.00280000       0.19361600
    62  H          0.20020000       0.00280000       0.80638400
    63  H          0.78880000       0.27820000       0.76728500
    64  H          0.21120000       0.72180000       0.23271500
    65  H          0.69080000       0.06720000       0.70038500
    66  H          0.30920000       0.93280000       0.29961500
    67  H          0.70580000       0.80220000       0.14611500
    68  H          0.29420000       0.19780000       0.85388500
    69  H          0.58470000       0.60720000       0.87018300
    70  H          0.41530000       0.39280000       0.12981700
    71  H          0.62670000       0.59720000       0.06621700
    72  H          0.37330000       0.40280000       0.93378300
    73  H          0.94570000       0.41520000       0.08371600
    74  H          0.05430000       0.58480000       0.91628400
    75  H          0.90770000       0.21720000       0.24131700
    76  H          0.09230000       0.78280000       0.75868300
