data_RORWEC
_symmetry_space_group_name_H-M    'P1'
_symmetry_Int_Tables_number       1
loop_
_symmetry_equiv_pos_site_id
_symmetry_equiv_pos_as_xyz
1 x,y,z
_cell_length_a                   5.884913
_cell_length_b                   24.9033
_cell_length_c                   6.22478
_cell_angle_alpha                90.0
_cell_angle_beta                 98.86411
_cell_angle_gamma                90.0
loop_
_atom_site_label
_atom_site_type_symbol
_atom_site_fract_x
_atom_site_fract_y
_atom_site_fract_z
     1  I          0.10030400       0.63672911       0.68552400
     2  I          0.10030400       0.36327089       0.68552400
     3  I          0.77798600       0.70681213       0.09748600
     4  I          0.77798600       0.29318787       0.09748600
     5  I          0.52573800       0.85878213       0.77994700
     6  I          0.52573800       0.14121787       0.77994700
     7  F          0.41997000       0.63766120       0.31356000
     8  F          0.41997000       0.36233880       0.31356000
     9  F          0.73877000       0.81085140       0.38256000
    10  F          0.73877000       0.18914860       0.38256000
    11  F          0.19437000       0.75922140       0.81786000
    12  F          0.19437000       0.24077860       0.81786000
    13  C          0.29889000       0.69737190       0.56668000
    14  C          0.29889000       0.30262810       0.56668000
    15  C          0.43198000       0.68706180       0.40638000
    16  C          0.43198000       0.31293820       0.40638000
    17  C          0.57691000       0.72465190       0.33558000
    18  C          0.57691000       0.27534810       0.33558000
    19  C          0.59171000       0.77392000       0.43829000
    20  C          0.59171000       0.22608000       0.43829000
    21  C          0.46281100       0.78688190       0.60208000
    22  C          0.46281100       0.21311810       0.60208000
    23  C          0.31891000       0.74800190       0.65888000
    24  C          0.31891000       0.25199810       0.65888000
    25  N          0.68959000       0.95115180       0.03618000
    26  N          0.68959000       0.04884820       0.03618000
    27  N          0.05111400       0.00000000       0.13841400
    28  N          0.75611500       0.00000000       0.37761100
    29  C          0.93751300       0.95233000       0.03191200
    30  C          0.93751300       0.04767000       0.03191200
    31  H          0.96390000       0.95130000       0.88200000
    32  H          0.96390000       0.04870000       0.88200000
    33  H          0.00670000       0.92040000       0.10380000
    34  H          0.00670000       0.07960000       0.10380000
    35  C          0.65431300       0.95202000       0.26521000
    36  C          0.65431300       0.04798000       0.26521000
    37  H          0.49080000       0.95120000       0.27200000
    38  H          0.49080000       0.04880000       0.27200000
    39  H          0.72320000       0.92020000       0.33820000
    40  H          0.72320000       0.07980000       0.33820000
    41  C          0.58681500      -0.00000000       0.92938700
    42  H          0.60910000      -0.00000000       0.77820000
    43  H          0.42270000      -0.00000000       0.93320000
    44  C          0.00561900       0.00000000       0.36811800
    45  H          0.07550000       0.96850000       0.44250000
    46  H          0.07550000       0.03150000       0.44250000
    47  N          0.91471100       0.50000000       0.22279000
    48  N          0.55751000       0.50000000       0.96278900
    49  N          0.89257000       0.54907150       0.88124000
    50  N          0.89257000       0.45092850       0.88124000
    51  C          0.66201300       0.50000000       0.19361200
    52  H          0.61010000       0.53150000       0.26390000
    53  H          0.61010000       0.46850000       0.26390000
    54  C         -0.01071000       0.45237190       0.11288000
    55  C         -0.01071000       0.54762810       0.11288000
    56  H          0.15580000       0.45220000       0.12780000
    57  H          0.15580000       0.54780000       0.12780000
    58  H          0.94230000       0.42030000       0.18300000
    59  H          0.94230000       0.57970000       0.18300000
    60  C          0.63899000       0.54782000       0.86061000
    61  C          0.63899000       0.45218000       0.86061000
    62  H          0.58640000       0.57960000       0.92810000
    63  H          0.58640000       0.42040000       0.92810000
    64  H          0.57320000       0.54830000       0.70790000
    65  H          0.57320000       0.45170000       0.70790000
    66  C          0.96761100       0.50000000       0.77879000
    67  H          0.13390000       0.50000000       0.79130000
    68  H          0.90440000       0.50000000       0.62530000
