data_ROSQAU
_symmetry_space_group_name_H-M    'P1'
_symmetry_Int_Tables_number       1
loop_
_symmetry_equiv_pos_site_id
_symmetry_equiv_pos_as_xyz
1 x,y,z
_cell_length_a                   9.748628
_cell_length_b                   17.9175315
_cell_length_c                   17.8230315
_cell_angle_alpha                90.0
_cell_angle_beta                 92.12618
_cell_angle_gamma                90.0
loop_
_atom_site_label
_atom_site_type_symbol
_atom_site_fract_x
_atom_site_fract_y
_atom_site_fract_z
     1  S          0.32285400       0.19173200       0.21765200
     2  S          0.17714600       0.69173200       0.28234800
     3  S          0.67714600       0.80826800       0.78234800
     4  S          0.82285400       0.30826800       0.71765200
     5  N          0.79484120       0.26377700       0.29239600
     6  N          0.70515880       0.76377700       0.20760400
     7  N          0.20515880       0.73622300       0.70760400
     8  N          0.29484120       0.23622300       0.79239600
     9  N          0.71870130       0.37127700       0.34020700
    10  N          0.78129870       0.87127700       0.15979300
    11  N          0.28129870       0.62872300       0.65979300
    12  N          0.21870130       0.12872300       0.84020700
    13  N          0.46690140       0.22396700       0.25053700
    14  N          0.03309860       0.72396700       0.24946300
    15  N          0.53309860       0.77603300       0.74946300
    16  N          0.96690140       0.27603300       0.75053700
    17  N          0.28650130       0.24990700       0.15132700
    18  N          0.21349870       0.74990700       0.34867300
    19  N          0.71349870       0.75009300       0.84867300
    20  N          0.78650130       0.25009300       0.65132700
    21  N          0.10656140       0.41894800       0.92836200
    22  N          0.39343860       0.91894800       0.57163800
    23  N          0.89343860       0.58105200       0.07163800
    24  N          0.60656140       0.08105200       0.42836200
    25  C          0.86939140       0.27564800       0.35968800
    26  C          0.63060860       0.77564800       0.14031200
    27  C          0.13060860       0.72435200       0.64031200
    28  C          0.36939140       0.22435200       0.85968800
    29  C          0.98282150       0.23547800       0.39476800
    30  C          0.51717850       0.73547800       0.10523200
    31  C          0.01717850       0.76452200       0.60523200
    32  C          0.48282150       0.26452200       0.89476800
    33  C          0.04667170       0.17312900       0.36362900
    34  C          0.45332830       0.67312900       0.13637100
    35  C          0.95332830       0.82687100       0.63637100
    36  C          0.54667170       0.32687100       0.86362900
    37  H          0.01080000       0.15260000       0.31850000
    38  H          0.48920000       0.65260000       0.18150000
    39  H         -0.01080000       0.84740000       0.68150000
    40  H          0.51080000       0.34740000       0.81850000
    41  C          0.16135180       0.14154100       0.39837100
    42  C          0.33864820       0.64154100       0.10162900
    43  C          0.83864820       0.85845900       0.60162900
    44  C          0.66135180       0.35845900       0.89837100
    45  H          0.20460000       0.10070000       0.37620000
    46  H          0.29540000       0.60070000       0.12380000
    47  H          0.79540000       0.89930000       0.62380000
    48  H          0.70460000       0.39930000       0.87620000
    49  C          0.21294180       0.17013100       0.46620100
    50  C          0.28705820       0.67013100       0.03379900
    51  C          0.78705820       0.82986900       0.53379900
    52  C          0.71294180       0.32986900       0.96620100
    53  H          0.29030000       0.14810000       0.49020000
    54  H          0.20970000       0.64810000       0.00980000
    55  H          0.70970000       0.85190000       0.50980000
    56  H          0.79030000       0.35190000       0.99020000
    57  C          0.15135160       0.23019900       0.49806900
    58  C          0.34864840       0.73019900       0.00193100
    59  C          0.84864840       0.76980100       0.50193100
    60  C          0.65135160       0.26980100      -0.00193100
    61  H          0.18710000       0.24840000       0.54420000
    62  H          0.31290000       0.74840000       0.95580000
    63  H          0.81290000       0.75160000       0.45580000
    64  H          0.68710000       0.25160000       0.04420000
    65  C          0.03614150       0.26565800       0.46406800
    66  C          0.46385850       0.76565800       0.03593200
    67  C          0.96385850       0.73434200       0.53593200
    68  C          0.53614150       0.23434200       0.96406800
    69  C          0.97793150       0.33320800       0.49639800
    70  C          0.52206850       0.83320800       0.00360200
    71  C          0.02206850       0.66679200       0.50360200
    72  C          0.47793150       0.16679200      -0.00360200
    73  C          0.02753160       0.36324100       0.56540900
    74  C          0.47246840       0.86324100       0.93459100
    75  C          0.97246840       0.63675900       0.43459100
    76  C          0.52753160       0.13675900       0.06540900
    77  H          0.09800000       0.33830000       0.59270000
    78  H          0.40200000       0.83830000       0.90730000
    79  H          0.90200000       0.66170000       0.40730000
    80  H          0.59800000       0.16170000       0.09270000
    81  C          0.97500180       0.42800100       0.59330900
    82  C          0.52499820       0.92800100       0.90669100
    83  C          0.02499820       0.57199900       0.40669100
    84  C          0.47500180       0.07199900       0.09330900
    85  H          0.01000000       0.44700000       0.63930000
    86  H          0.49000000       0.94700000       0.86070000
    87  H         -0.01000000       0.55300000       0.36070000
    88  H          0.51000000       0.05300000       0.13930000
    89  C          0.87011180       0.46603100       0.55422100
    90  C          0.62988820       0.96603100       0.94577900
    91  C          0.12988820       0.53396900       0.44577900
    92  C          0.37011180       0.03396900       0.05422100
    93  H          0.83500000       0.51060000       0.57360000
    94  H          0.66500000       0.01060000       0.92640000
    95  H          0.16500000       0.48940000       0.42640000
    96  H          0.33500000       0.98940000       0.07360000
    97  C          0.81830160       0.43810900       0.48738900
    98  C          0.68169840       0.93810900       0.01261100
    99  C          0.18169840       0.56189100       0.51261100
   100  C          0.31830160       0.06189100       0.98738900
   101  H          0.74730000       0.46360000       0.46110000
   102  H          0.75270000       0.96360000       0.03890000
   103  H          0.25270000       0.53640000       0.53890000
   104  H          0.24730000       0.03640000       0.96110000
   105  C          0.87028150       0.37200800       0.45798800
   106  C          0.62971850       0.87200800       0.04201200
   107  C          0.12971850       0.62799200       0.54201200
   108  C          0.37028150       0.12799200       0.95798800
   109  C          0.81949140       0.34105800       0.38778800
   110  C          0.68050860       0.84105800       0.11221200
   111  C          0.18050860       0.65894200       0.61221200
   112  C          0.31949140       0.15894200       0.88778800
   113  C          0.70735150       0.32366800       0.28434800
   114  C          0.79264850       0.82366800       0.21565200
   115  C          0.29264850       0.67633200       0.71565200
   116  C          0.20735150       0.17633200       0.78434800
   117  C          0.60850150       0.33311800       0.22017800
   118  C          0.89149850       0.83311800       0.27982200
   119  C          0.39149850       0.66688200       0.77982200
   120  C          0.10850150       0.16688200       0.72017800
   121  C          0.49444150       0.28429800       0.20870800
   122  C          0.00555850       0.78429800       0.29129200
   123  C          0.50555850       0.71570200       0.79129200
   124  C         -0.00555850       0.21570200       0.70870800
   125  C          0.39076150       0.29944800       0.15126800
   126  C          0.10923850       0.79944800       0.34873200
   127  C          0.60923850       0.70055200       0.84873200
   128  C          0.89076150       0.20055200       0.65126800
   129  C          0.40127150       0.36294800       0.10329800
   130  C          0.09872850       0.86294800       0.39670200
   131  C          0.59872850       0.63705200       0.89670200
   132  C          0.90127150       0.13705200       0.60329800
   133  C          0.51424160       0.40780900       0.11636900
   134  C         -0.01424160       0.90780900       0.38363100
   135  C          0.48575840       0.59219100       0.88363100
   136  C          0.01424160       0.09219100       0.61636900
   137  H          0.52480000       0.45000000       0.08570000
   138  H          0.97520000       0.95000000       0.41430000
   139  H          0.47520000       0.55000000       0.91430000
   140  H          0.02480000       0.05000000       0.58570000
   141  C          0.61555160       0.39351900       0.17379900
   142  C          0.88444840       0.89351900       0.32620100
   143  C          0.38444840       0.60648100       0.82620100
   144  C          0.11555160       0.10648100       0.67379900
   145  H          0.68980000       0.42670000       0.18010000
   146  H          0.81020000       0.92670000       0.31990000
   147  H          0.31020000       0.57330000       0.81990000
   148  H          0.18980000       0.07330000       0.68010000
   149  C          0.29734150       0.38094800       0.04316800
   150  C          0.20265850       0.88094800       0.45683200
   151  C          0.70265850       0.61905200       0.95683200
   152  C          0.79734150       0.11905200       0.54316800
   153  C          0.21962160       0.32677900       0.00501900
   154  C          0.28037840       0.82677900       0.49498100
   155  C          0.78037840       0.67322100      -0.00501900
   156  C          0.71962160       0.17322100       0.50501900
   157  H          0.22990000       0.27610000       0.01780000
   158  H          0.27010000       0.77610000       0.48220000
   159  H          0.77010000       0.72390000       0.98220000
   160  H          0.72990000       0.22390000       0.51780000
   161  C          0.12730170       0.34807900       0.94822100
   162  C          0.37269830       0.84807900       0.55177900
   163  C          0.87269830       0.65192100       0.05177900
   164  C          0.62730170       0.15192100       0.44822100
   165  H          0.07680000       0.31080000       0.92240000
   166  H          0.42320000       0.81080000       0.57760000
   167  H          0.92320000       0.68920000       0.07760000
   168  H          0.57680000       0.18920000       0.42240000
   169  C          0.18041190       0.47122100       0.96486900
   170  C          0.31958810       0.97122100       0.53513100
   171  C          0.81958810       0.52877900       0.03513100
   172  C          0.68041190       0.02877900       0.46486900
   173  H          0.16680000       0.52150000       0.95130000
   174  H          0.33320000       0.02150000       0.54870000
   175  H          0.83320000       0.47850000       0.04870000
   176  H          0.66680000       0.97850000       0.45130000
   177  C          0.27537180       0.45480900       0.02131100
   178  C          0.22462820       0.95480900       0.47868900
   179  C          0.72462820       0.54519100       0.97868900
   180  C          0.77537180       0.04519100       0.52131100
   181  H          0.32560000       0.49340000       0.04520000
   182  H          0.17440000      -0.00660000       0.45480000
   183  H          0.67440000       0.50660000       0.95480000
   184  H          0.82560000       0.00660000       0.54520000
   185  C          0.81977150       0.20875800       0.23555800
   186  C          0.68022850       0.70875800       0.26444200
   187  C          0.18022850       0.79124200       0.76444200
   188  C          0.31977150       0.29124200       0.73555800
   189  C          0.77151170       0.13668900       0.24316900
   190  C          0.72848830       0.63668900       0.25683100
   191  C          0.22848830       0.86331100       0.75683100
   192  C          0.27151170       0.36331100       0.74316900
   193  H          0.71730000       0.12390000       0.28380000
   194  H          0.78270000       0.62390000       0.21620000
   195  H          0.28270000       0.87610000       0.71620000
   196  H          0.21730000       0.37610000       0.78380000
   197  C          0.80409180       0.08352900       0.19015100
   198  C          0.69590820       0.58352900       0.30984900
   199  C          0.19590820       0.91647100       0.80984900
   200  C          0.30409180       0.41647100       0.69015100
   201  H          0.77340000       0.03410000       0.19500000
   202  H          0.72660000       0.53410000       0.30500000
   203  H          0.22660000       0.96590000       0.80500000
   204  H          0.27340000       0.46590000       0.69500000
   205  C          0.88239180       0.10377100       0.12974100
   206  C          0.61760820       0.60377100       0.37025900
   207  C          0.11760820       0.89622900       0.87025900
   208  C          0.38239180       0.39622900       0.62974100
   209  H          0.90370000       0.06790000       0.09350000
   210  H          0.59630000       0.56790000       0.40650000
   211  H          0.09630000       0.93210000       0.90650000
   212  H          0.40370000       0.43210000       0.59350000
   213  C          0.92889190       0.17577110       0.12242900
   214  C          0.57110810       0.67577110       0.37757100
   215  C          0.07110810       0.82422890       0.87757100
   216  C          0.42889190       0.32422890       0.62242900
   217  H          0.98210000       0.18880000       0.08150000
   218  H          0.51790000       0.68880000       0.41850000
   219  H          0.01790000       0.81120000       0.91850000
   220  H          0.48210000       0.31120000       0.58150000
   221  C          0.89723160       0.22914100       0.17541900
   222  C          0.60276840       0.72914100       0.32458100
   223  C          0.10276840       0.77085900       0.82458100
   224  C          0.39723160       0.27085900       0.67541900
   225  H          0.92800000       0.27850000       0.17050000
   226  H          0.57200000       0.77850000       0.32950000
   227  H          0.07200000       0.72150000       0.82950000
   228  H          0.42800000       0.22150000       0.67050000
   229  O          0.45754150       0.30363700       0.43246800
   230  O          0.04245850       0.80363700       0.06753200
   231  O          0.54245850       0.69636300       0.56753200
   232  O          0.95754150       0.19636300       0.93246800
   233  O          0.49618130       0.41994800       0.45704700
   234  O          0.00381870       0.91994800       0.04295300
   235  O          0.50381870       0.58005200       0.54295300
   236  O         -0.00381870       0.08005200       0.95704700
   237  O          0.07747130       0.53661700       0.17069700
   238  O          0.42252870       0.03661700       0.32930300
   239  O          0.92252870       0.46338300       0.82930300
   240  O          0.57747130       0.96338300       0.67069700
   241  H         -0.00230000       0.55361600       0.13371600
   242  H          0.50230000       0.05361600       0.36628400
   243  H          0.00230000       0.44638400       0.86628400
   244  H          0.49770000       0.94638400       0.63371600
   245  O          0.96663850       0.42793800       0.16809900
   246  O          0.53336150       0.92793800       0.33190100
   247  O          0.03336150       0.57206200       0.83190100
   248  O          0.46663850       0.07206200       0.66809900
   249  N          0.44325140       0.37004800       0.41918800
   250  N          0.05674860       0.87004800       0.08081200
   251  N          0.55674860       0.62995200       0.58081200
   252  N          0.94325140       0.12995200       0.91918800
   253  C          0.35291150       0.39196900       0.35519800
   254  C          0.14708850       0.89196900       0.14480200
   255  C          0.64708850       0.60803100       0.64480200
   256  C          0.85291150       0.10803100       0.85519800
   257  C          0.37526170       0.45914900       0.32100100
   258  C          0.12473830       0.95914900       0.17899900
   259  C          0.62473830       0.54085100       0.67899900
   260  C          0.87526170       0.04085100       0.82100100
   261  H          0.45220000       0.48830000       0.33480000
   262  H          0.04780000       0.98830000       0.16520000
   263  H          0.54780000       0.51170000       0.66520000
   264  H          0.95220000       0.01170000       0.83480000
   265  C          0.28253170       0.48295900       0.26592900
   266  C          0.21746830       0.98295900       0.23407100
   267  C          0.71746830       0.51704100       0.73407100
   268  C          0.78253170       0.01704100       0.76592900
   269  H          0.29710000       0.52840000       0.24120000
   270  H          0.20290000       0.02840000       0.25880000
   271  H          0.70290000       0.47160000       0.75880000
   272  H          0.79710000       0.97160000       0.74120000
   273  C          0.16774150       0.44018800       0.24674800
   274  C          0.33225850       0.94018800       0.25325200
   275  C          0.83225850       0.55981200       0.75325200
   276  C          0.66774150       0.05981200       0.74674800
   277  C          0.15064170       0.37126900       0.28093900
   278  C          0.34935830       0.87126900       0.21906100
   279  C          0.84935830       0.62873100       0.71906100
   280  C          0.65064170       0.12873100       0.78093900
   281  H          0.07460000       0.34140000       0.26700000
   282  H          0.42540000       0.84140000       0.23300000
   283  H          0.92540000       0.65860000       0.73300000
   284  H          0.57460000       0.15860000       0.76700000
   285  C          0.24479170       0.34638900       0.33524900
   286  C          0.25520830       0.84638900       0.16475100
   287  C          0.75520830       0.65361100       0.66475100
   288  C          0.74479170       0.15361100       0.83524900
   289  H          0.23490000       0.29940000       0.35790000
   290  H          0.26510000       0.79940000       0.14210000
   291  H          0.76510000       0.70060000       0.64210000
   292  H          0.73490000       0.20060000       0.85790000
   293  C          0.06000160       0.46732900       0.19109900
   294  C          0.43999840       0.96732900       0.30890100
   295  C          0.93999840       0.53267100       0.80890100
   296  C          0.56000160       0.03267100       0.69109900
