data_ROTREZ
_symmetry_space_group_name_H-M    'P1'
_symmetry_Int_Tables_number       1
loop_
_symmetry_equiv_pos_site_id
_symmetry_equiv_pos_as_xyz
1 x,y,z
_cell_length_a                   5.88727
_cell_length_b                   13.163414
_cell_length_c                   38.7954
_cell_angle_alpha                90.0
_cell_angle_beta                 90.0
_cell_angle_gamma                90.0
loop_
_atom_site_label
_atom_site_type_symbol
_atom_site_fract_x
_atom_site_fract_y
_atom_site_fract_z
     1  C          0.53376000       0.86313000       0.39529120
     2  C          0.46624000       0.13687000       0.89529120
     3  C          0.46624000       0.36313000       0.39529120
     4  C          0.53376000       0.63687000       0.89529120
     5  C          0.88796000       0.94792000       0.40534900
     6  C          0.11204000       0.05208000       0.90534900
     7  C          0.11204000       0.44792000       0.40534900
     8  C          0.88796000       0.55208000       0.90534900
     9  H          0.03130000       0.94920000       0.41540000
    10  H          0.96870000       0.05080000       0.91540000
    11  H          0.96870000       0.44920000       0.41540000
    12  H          0.03130000       0.55080000       0.91540000
    13  C          0.81776000       0.02893000       0.38590900
    14  C          0.18224000       0.97107000       0.88590900
    15  C          0.18224000       0.52893000       0.38590900
    16  C          0.81776000       0.47107000       0.88590900
    17  H          0.91200000       0.08490000       0.38300000
    18  H          0.08800000       0.91510000       0.88300000
    19  H          0.08800000       0.58490000       0.38300000
    20  H          0.91200000       0.41510000       0.88300000
    21  C          0.46606000       0.94513000       0.37508100
    22  C          0.53394000       0.05487000       0.87508100
    23  C          0.53394000       0.44513000       0.37508100
    24  C          0.46606000       0.55487000       0.87508100
    25  H          0.32430000       0.94460000       0.36450000
    26  H          0.67570000       0.05540000       0.86450000
    27  H          0.67570000       0.44460000       0.36450000
    28  H          0.32430000       0.55540000       0.86450000
    29  C          0.06966000       0.53323000       0.49319900
    30  C          0.93034000       0.46677000       0.99319900
    31  C          0.93034000       0.03323000       0.49319900
    32  C          0.06966000       0.96677000       0.99319900
    33  H          0.21300000       0.53170000       0.50330000
    34  H          0.78700000       0.46830000       0.00330000
    35  H          0.78700000       0.03170000       0.50330000
    36  H          0.21300000       0.96830000       0.00330000
    37  C          0.64785000       0.53842000       0.46299800
    38  C          0.35215000       0.46158000       0.96299800
    39  C          0.35215000       0.03842000       0.46299800
    40  C          0.64785000       0.96158000       0.96299800
    41  H          0.50590000       0.53900000       0.45250000
    42  H          0.49410000       0.46100000       0.95250000
    43  H          0.49410000       0.03900000       0.45250000
    44  H          0.50590000       0.96100000       0.95250000
    45  C          0.92226000       0.45272000       0.49809900
    46  C          0.07774000       0.54728000      -0.00190100
    47  C          0.07774000       0.95272000       0.49809900
    48  C          0.92226000       0.04728000      -0.00190100
    49  C          0.70915000       0.45602000       0.48282800
    50  C          0.29085000       0.54398000       0.98282800
    51  C          0.29085000       0.95602000       0.48282800
    52  C          0.70915000       0.04398000       0.98282800
    53  H          0.60770000       0.40260000       0.48600000
    54  H          0.39230000       0.59740000       0.98600000
    55  H          0.39230000       0.90260000       0.48600000
    56  H          0.60770000       0.09740000       0.98600000
    57  C          0.60856000       0.02673000       0.37079900
    58  C          0.39144000       0.97327000       0.87079900
    59  C          0.39144000       0.52673000       0.37079900
    60  C          0.60856000       0.47327000       0.87079900
    61  H          0.56170000       0.08140000       0.35740000
    62  H          0.43830000       0.91860000       0.85740000
    63  H          0.43830000       0.58140000       0.35740000
    64  H          0.56170000       0.41860000       0.85740000
    65  O         -0.00536000       0.37327190       0.51827100
    66  O          0.00536000       0.62672810       0.01827100
    67  O          0.00536000       0.87327190       0.51827100
    68  O         -0.00536000       0.12672810       0.01827100
    69  H          0.88450000       0.34040000       0.52480000
    70  H          0.11550000       0.65960000       0.02480000
    71  H          0.11550000       0.84040000       0.52480000
    72  H          0.88450000       0.15960000       0.02480000
    73  O          0.38634000       0.78491180       0.39992800
    74  O          0.61366000       0.21508820       0.89992800
    75  O          0.61366000       0.28491180       0.39992800
    76  O          0.38634000       0.71508820       0.89992800
    77  H          0.45210000       0.73750000       0.40930000
    78  H          0.54790000       0.26250000       0.90930000
    79  H          0.54790000       0.23750000       0.40930000
    80  H          0.45210000       0.76250000       0.90930000
    81  C          0.00655000       0.61563000       0.47359120
    82  C         -0.00655000       0.38437000       0.97359120
    83  C         -0.00655000       0.11563000       0.47359120
    84  C          0.00655000       0.88437000       0.97359120
    85  H          0.10860000       0.66880000       0.47050000
    86  H          0.89140000       0.33120000       0.97050000
    87  H          0.89140000       0.16880000       0.47050000
    88  H          0.10860000       0.83120000       0.97050000
    89  C          0.83045000       0.77972000       0.43112800
    90  C          0.16955000       0.22028000       0.93112800
    91  C          0.16955000       0.27972000       0.43112800
    92  C          0.83045000       0.72028000       0.93112800
    93  H         -0.02280000       0.78280000       0.43990000
    94  H          0.02280000       0.21720000       0.93990000
    95  H          0.02280000       0.28280000       0.43990000
    96  H         -0.02280000       0.71720000       0.93990000
    97  C          0.79255000       0.62102000       0.45830800
    98  C          0.20745000       0.37898000       0.95830800
    99  C          0.20745000       0.12102000       0.45830800
   100  C          0.79255000       0.87898000       0.95830800
   101  N          0.70884000       0.70183180       0.43778700
   102  N          0.29116000       0.29816820       0.93778700
   103  N          0.29116000       0.20183180       0.43778700
   104  N          0.70884000       0.79816820       0.93778700
   105  C          0.74825000       0.86332000       0.41039800
   106  C          0.25175000       0.13668000       0.91039800
   107  C          0.25175000       0.36332000       0.41039800
   108  C          0.74825000       0.63668000       0.91039800
   109  C          0.00225000       0.60343000       0.29833110
   110  C         -0.00225000       0.39657000       0.79833110
   111  C         -0.00225000       0.10343000       0.29833110
   112  C          0.00225000       0.89657000       0.79833110
   113  C          0.05877000       0.76763000       0.32275900
   114  C          0.94123000       0.23237000       0.82275900
   115  C          0.94123000       0.26763000       0.32275900
   116  C          0.05877000       0.73237000       0.82275900
   117  H          0.00660000       0.82070000       0.33640000
   118  H         -0.00660000       0.17930000       0.83640000
   119  H         -0.00660000       0.32070000       0.33640000
   120  H          0.00660000       0.67930000       0.83640000
   121  C          0.92626000       0.68303000       0.31821900
   122  C          0.07374000       0.31697000       0.81821900
   123  C          0.07374000       0.18303000       0.31821900
   124  C          0.92626000       0.81697000       0.81821900
   125  H          0.78420000       0.67940000       0.32860000
   126  H          0.21580000       0.32060000       0.82860000
   127  H          0.21580000       0.17940000       0.32860000
   128  H          0.78420000       0.82060000       0.82860000
   129  C          0.34746000       0.69482000       0.28783900
   130  C          0.65254000       0.30518000       0.78783900
   131  C          0.65254000       0.19482000       0.28783900
   132  C          0.34746000       0.80518000       0.78783900
   133  H          0.49090000       0.69920000       0.27790000
   134  H          0.50910000       0.30080000       0.77790000
   135  H          0.50910000       0.19920000       0.27790000
   136  H          0.49090000       0.80080000       0.77790000
   137  C          0.21885000       0.60762000       0.28255800
   138  C          0.78115000       0.39238000       0.78255800
   139  C          0.78115000       0.10762000       0.28255800
   140  C          0.21885000       0.89238000       0.78255800
   141  C          0.26916000       0.77443000       0.30715900
   142  C          0.73084000       0.22557000       0.80715900
   143  C          0.73084000       0.27443000       0.30715900
   144  C          0.26916000       0.72557000       0.80715900
   145  H          0.35680000       0.83270000       0.30980000
   146  H          0.64320000       0.16730000       0.80980000
   147  H          0.64320000       0.33270000       0.30980000
   148  H          0.35680000       0.66730000       0.80980000
   149  C          0.30935000       0.52582000       0.26201800
   150  C          0.69065000       0.47418000       0.76201800
   151  C          0.69065000       0.02582000       0.26201800
   152  C          0.30935000       0.97418000       0.76201800
   153  H          0.45470000       0.53260000       0.25290000
   154  H          0.54530000       0.46740000       0.75290000
   155  H          0.54530000       0.03260000       0.25290000
   156  H          0.45470000       0.96740000       0.75290000
   157  C          0.28885000       0.36372000       0.23549700
   158  C          0.71115000       0.63628000       0.73549700
   159  C          0.71115000       0.86372000       0.23549700
   160  C          0.28885000       0.13628000       0.73549700
   161  N          0.19814000       0.44413180       0.25573700
   162  N          0.80186000       0.55586820       0.75573700
   163  N          0.80186000       0.94413180       0.25573700
   164  N          0.19814000       0.05586820       0.75573700
   165  O          0.86874000       0.52062170       0.29394800
   166  O          0.13126000       0.47937830       0.79394800
   167  O          0.13126000       0.02062170       0.29394800
   168  O          0.86874000       0.97937830       0.79394800
   169  H          0.93070000       0.48100000       0.28060000
   170  H          0.06930000       0.51900000       0.78060000
   171  H          0.06930000       0.98100000       0.28060000
   172  H          0.93070000       0.01900000       0.78060000
   173  C          0.21806000       0.19862000       0.21090800
   174  C          0.78194000       0.80138000       0.71090800
   175  C          0.78194000       0.69862000       0.21090800
   176  C          0.21806000       0.30138000       0.71090800
   177  H          0.12120000       0.14340000       0.20800000
   178  H          0.87880000       0.85660000       0.70800000
   179  H          0.87880000       0.64340000       0.20800000
   180  H          0.12120000       0.35660000       0.70800000
   181  C          0.15075000       0.28072000       0.23063800
   182  C          0.84925000       0.71928000       0.73063800
   183  C          0.84925000       0.78072000       0.23063800
   184  C          0.15075000       0.21928000       0.73063800
   185  H          0.00800000       0.27980000       0.24090000
   186  H         -0.00800000       0.72020000       0.74090000
   187  H         -0.00800000       0.77980000       0.24090000
   188  H          0.00800000       0.22020000       0.74090000
   189  O          0.50864000       0.12214190       0.17566900
   190  O          0.49136000       0.87785810       0.67566900
   191  O          0.49136000       0.62214190       0.17566900
   192  O          0.50864000       0.37785810       0.67566900
   193  H          0.40350000       0.09780000       0.16450000
   194  H          0.59650000       0.90220000       0.66450000
   195  H          0.59650000       0.59780000       0.16450000
   196  H          0.40350000       0.40220000       0.66450000
   197  C          0.43026000       0.19882000       0.19537900
   198  C          0.56974000       0.80118000       0.69537900
   199  C          0.56974000       0.69882000       0.19537900
   200  C          0.43026000       0.30118000       0.69537900
   201  C          0.57276000       0.28143000       0.20057100
   202  C          0.42724000       0.71857000       0.70057100
   203  C          0.42724000       0.78143000       0.20057100
   204  C          0.57276000       0.21857000       0.70057100
   205  H          0.71610000       0.28190000       0.19050000
   206  H          0.28390000       0.71810000       0.69050000
   207  H          0.28390000       0.78190000       0.19050000
   208  H          0.71610000       0.21810000       0.69050000
   209  C          0.50415000       0.36273000       0.22045130
   210  C          0.49585000       0.63727000       0.72045130
   211  C          0.49585000       0.86273000       0.22045130
   212  C          0.50415000       0.13727000       0.72045130
   213  H          0.60200000       0.41730000       0.22390000
   214  H          0.39800000       0.58270000       0.72390000
   215  H          0.39800000       0.91730000       0.22390000
   216  H          0.60200000       0.08270000       0.72390000
   217  C          0.32955000       0.34362000       0.08722900
   218  C          0.67045000       0.65638000       0.58722900
   219  C          0.67045000       0.84362000       0.08722900
   220  C          0.32955000       0.15638000       0.58722900
   221  C          0.49997000       0.28863000       0.10336140
   222  C          0.50003000       0.71137000       0.60336140
   223  C          0.50003000       0.78863000       0.10336140
   224  C          0.49997000       0.21137000       0.60336140
   225  H          0.51100000       0.28940000       0.12730000
   226  H          0.48900000       0.71060000       0.62730000
   227  H          0.48900000       0.78940000       0.12730000
   228  H          0.51100000       0.21060000       0.62730000
   229  C          0.65157000       0.23314000       0.08454120
   230  C          0.34843000       0.76686000       0.58454120
   231  C          0.34843000       0.73314000       0.08454120
   232  C          0.65157000       0.26686000       0.58454120
   233  H          0.76320000       0.19720000       0.09630000
   234  H          0.23680000       0.80280000       0.59630000
   235  H          0.23680000       0.69720000       0.09630000
   236  H          0.76320000       0.30280000       0.59630000
   237  N          0.64835000       0.22772000       0.05044900
   238  N          0.35165000       0.77228000       0.55044900
   239  N          0.35165000       0.72772000       0.05044900
   240  N          0.64835000       0.27228000       0.55044900
   241  C         -0.00532000       0.46353000       0.15877140
   242  C          0.00532000       0.53647000       0.65877140
   243  C          0.00532000       0.96353000       0.15877140
   244  C         -0.00532000       0.03647000       0.65877140
   245  H         -0.00560000       0.46170000       0.18270000
   246  H          0.00560000       0.53830000       0.68270000
   247  H          0.00560000       0.96170000       0.18270000
   248  H         -0.00560000       0.03830000       0.68270000
   249  C          0.16255000       0.40563000       0.10674800
   250  C          0.83745000       0.59437000       0.60674800
   251  C          0.83745000       0.90563000       0.10674800
   252  C          0.16255000       0.09437000       0.60674800
   253  C          0.48549000       0.27764000       0.03531160
   254  C          0.51451000       0.72236000       0.53531160
   255  C          0.51451000       0.77764000       0.03531160
   256  C          0.48549000       0.22236000       0.53531160
   257  H          0.47590000       0.27390000       0.01140000
   258  H          0.52410000       0.72610000       0.51140000
   259  H          0.52410000       0.77390000       0.01140000
   260  H          0.47590000       0.22610000       0.51140000
   261  C          0.15637000       0.40733000       0.14192110
   262  C          0.84363000       0.59267000       0.64192110
   263  C          0.84363000       0.90733000       0.14192110
   264  C          0.15637000       0.09267000       0.64192110
   265  H          0.26220000       0.37020000       0.15450000
   266  H          0.73780000       0.62980000       0.65450000
   267  H          0.73780000       0.87020000       0.15450000
   268  H          0.26220000       0.12980000       0.65450000
   269  C          0.32678000       0.33524000       0.05235110
   270  C          0.67322000       0.66476000       0.55235110
   271  C          0.67322000       0.83524000       0.05235110
   272  C          0.32678000       0.16476000       0.55235110
   273  H          0.21530000       0.36890000       0.03980000
   274  H          0.78470000       0.63110000       0.53980000
   275  H          0.78470000       0.86890000       0.03980000
   276  H          0.21530000       0.13110000       0.53980000
   277  C          0.00268000       0.46384000       0.09095160
   278  C         -0.00268000       0.53616000       0.59095160
   279  C         -0.00268000       0.96384000       0.09095160
   280  C          0.00268000       0.03616000       0.59095160
   281  H         -0.00210000       0.46610000       0.06700000
   282  H          0.00210000       0.53390000       0.56700000
   283  H          0.00210000       0.96610000       0.06700000
   284  H         -0.00210000       0.03390000       0.56700000
   285  N          0.84125000       0.51942000       0.14362900
   286  N          0.15875000       0.48058000       0.64362900
   287  N          0.15875000       0.01942000       0.14362900
   288  N          0.84125000       0.98058000       0.64362900
   289  C          0.84848000       0.51894000       0.10951130
   290  C          0.15152000       0.48106000       0.60951130
   291  C          0.15152000       0.01894000       0.10951130
   292  C          0.84848000       0.98106000       0.60951130
   293  H          0.74310000       0.55800000       0.09760000
   294  H          0.25690000       0.44200000       0.59760000
   295  H          0.25690000       0.05800000       0.09760000
   296  H          0.74310000       0.94200000       0.59760000
