data_ROXKEY
_symmetry_space_group_name_H-M    'P1'
_symmetry_Int_Tables_number       1
loop_
_symmetry_equiv_pos_site_id
_symmetry_equiv_pos_as_xyz
1 x,y,z
_cell_length_a                   8.22894
_cell_length_b                   12.70937
_cell_length_c                   20.36451
_cell_angle_alpha                90.72001
_cell_angle_beta                 95.66601
_cell_angle_gamma                91.67301
loop_
_atom_site_label
_atom_site_type_symbol
_atom_site_fract_x
_atom_site_fract_y
_atom_site_fract_z
     1  C          0.81325140       0.62521800       0.30649500
     2  C          0.18674860       0.37478200       0.69350500
     3  H          0.86198800       0.67717200       0.28092800
     4  H          0.13801200       0.32282800       0.71907200
     5  C          0.74735150       0.65412900       0.36280600
     6  C          0.25264850       0.34587100       0.63719400
     7  H          0.75369500       0.72575700       0.37696200
     8  H          0.24630500       0.27424300       0.62303800
     9  C          0.66917140       0.57733900       0.40036500
    10  C          0.33082860       0.42266100       0.59963500
    11  H          0.61996400       0.59891400       0.43840800
    12  H          0.38003600       0.40108600       0.56159200
    13  C          0.66382140       0.47326900       0.38258500
    14  C          0.33617860       0.52673100       0.61741500
    15  H          0.61088000       0.42322300       0.40816800
    16  H          0.38912000       0.57677700       0.59183200
    17  C          0.82078140       0.19178800       0.24640600
    18  C          0.17921860       0.80821200       0.75359400
    19  H          0.77792400       0.14307700       0.27573100
    20  H          0.22207600       0.85692300       0.72426900
    21  C          0.89253140       0.15580900       0.19330600
    22  C          0.10746860       0.84419100       0.80669400
    23  H          0.89935200       0.08215200       0.18601400
    24  H          0.10064800       0.91784800       0.81398600
    25  C          0.95739140       0.22726900       0.14863500
    26  C          0.04260860       0.77273100       0.85136500
    27  H          0.00711700       0.20088100       0.11187200
    28  H         -0.00711700       0.79911900       0.88812800
    29  C          0.94875140       0.33340800       0.15815500
    30  C          0.05124860       0.66659200       0.84184500
    31  H         -0.00864900       0.38035900       0.12773800
    32  H          0.00864900       0.61964100       0.87226200
    33  C          0.87341130       0.48207800       0.22873500
    34  C          0.12658870       0.51792200       0.77126500
    35  N          0.73902110       0.33546700       0.31146400
    36  N          0.26097890       0.66453300       0.68853600
    37  C          0.80920130       0.51728800       0.28590500
    38  C          0.19079870       0.48271200       0.71409500
    39  C          0.73761130       0.43934800       0.32560500
    40  C          0.26238870       0.56065200       0.67439500
    41  C          0.80954130       0.30215800       0.25826500
    42  C          0.19045870       0.69784200       0.74173500
    43  C          0.87599130       0.37416800       0.21360500
    44  C          0.12400870       0.62583200       0.78639500
    45  C          0.73345140       0.55513900       0.08917600
    46  C          0.26654860       0.44486100       0.91082400
    47  H          0.64811700       0.52405600       0.11127900
    48  H          0.35188300       0.47594400       0.88872100
    49  C          0.70785150       0.58468900       0.02352600
    50  C          0.29214850       0.41531100       0.97647400
    51  H          0.60252600       0.57397300       0.00039200
    52  H          0.39747400       0.42602700      -0.00039200
    53  C          0.83414150       0.62999900       0.99066400
    54  C          0.16585850       0.37000100       0.00933600
    55  H          0.81255800       0.65002300       0.94594100
    56  H          0.18744200       0.34997700       0.05405900
    57  C         -0.01029860       0.64591900       0.02251500
    58  C          0.01029860       0.35408100       0.97748500
    59  H          0.07515000       0.67552500      -0.00017400
    60  H          0.92485000       0.32447500       0.00017400
    61  C          0.32341140       0.65885800       0.13472600
    62  C          0.67658860       0.34114200       0.86527400
    63  H          0.35964900       0.68526000       0.09506000
    64  H          0.64035100       0.31474000       0.90494000
    65  C          0.43059140       0.65390800       0.19159600
    66  C          0.56940860       0.34609200       0.80840400
    67  H          0.54105900       0.67725400       0.19069500
    68  H          0.45894100       0.32274600       0.80930500
    69  C          0.37807140       0.61481800       0.25054600
    70  C          0.62192860       0.38518200       0.74945400
    71  H          0.45379000       0.61237000       0.28880800
    72  H          0.54621000       0.38763000       0.71119200
    73  C          0.21756140       0.57969800       0.25388500
    74  C          0.78243860       0.42030200       0.74611500
    75  H          0.18185400       0.55318800       0.29360900
    76  H          0.81814600       0.44681200       0.70639100
    77  N          0.94558110       0.55521700       0.18712400
    78  N          0.05441890       0.44478300       0.81287600
    79  C          0.88964130       0.57306800       0.12109500
    80  C          0.11035870       0.42693200       0.87890500
    81  C          0.01874130       0.61753800       0.08879500
    82  C         -0.01874130       0.38246200       0.91120500
    83  C          0.16112130       0.62427800       0.13684500
    84  C          0.83887870       0.37572200       0.86315500
    85  C          0.11155130       0.58503800       0.19654500
    86  C          0.88844870       0.41496200       0.80345500
    87  F          0.49895900       0.78769500       0.48369400
    88  F          0.50104100       0.21230500       0.51630600
    89  F          0.66292100       0.90877600       0.40601300
    90  F          0.33707900       0.09122400       0.59398700
    91  O          0.40918110       0.79110700       0.61230400
    92  O          0.59081890       0.20889300       0.38769600
    93  H          0.34920000       0.74851400       0.63919000
    94  H          0.65080000       0.25148600       0.36081000
    95  O          0.18541120       0.88756900       0.59810600
    96  O          0.81458880       0.11243100       0.40189400
    97  C          0.41537130       0.93549800       0.54216500
    98  C          0.58462870       0.06450200       0.45783500
    99  C          0.50214140       0.89213800       0.49387500
   100  C          0.49785860       0.10786200       0.50612500
   101  C          0.58548140       0.95551800       0.45295500
   102  C          0.41451860       0.04448200       0.54704500
   103  C          0.32270140       0.86852900       0.58709600
   104  C          0.67729860       0.13147100       0.41290400
   105  C          0.44321140       0.17314800       0.15879500
   106  C          0.55678860       0.82685200       0.84120500
   107  H          0.48563600       0.12811100       0.12748000
   108  H          0.51436400       0.87188900       0.87252000
   109  C          0.45133140       0.27955900       0.15107500
   110  C          0.54866860       0.72044100       0.84892500
   111  H          0.50003000       0.30817600       0.11457500
   112  H          0.49997000       0.69182400       0.88542500
   113  C          0.38735150       0.34794900       0.19730600
   114  C          0.61264850       0.65205100       0.80269400
   115  H          0.39375400       0.42190200       0.19130600
   116  H          0.60624600       0.57809800       0.80869400
   117  C          0.31689140       0.30875800       0.25016600
   118  C          0.68310860       0.69124200       0.74983400
   119  H          0.27462000       0.35551400       0.28054900
   120  H          0.72538000       0.64448600       0.71945100
   121  C          0.16269130       0.01965900       0.38155500
   122  C          0.83730870       0.98034100       0.61844500
   123  H          0.11641000       0.06796200       0.40986500
   124  H          0.88359000       0.93203800       0.59013500
   125  C          0.16067140       0.91475900       0.39507500
   126  C          0.83932860       0.08524100       0.60492500
   127  H          0.11284800       0.89067900       0.43295200
   128  H          0.88715200       0.10932100       0.56704800
   129  C          0.22924140       0.84052900       0.35323500
   130  C          0.77075860       0.15947100       0.64676500
   131  H          0.22805900       0.76798400       0.36392800
   132  H          0.77194100       0.23201600       0.63607200
   133  C          0.29658140       0.87309800       0.29787500
   134  C          0.70341860       0.12690200       0.70212500
   135  H          0.34049900       0.82302600       0.26999300
   136  H          0.65950100       0.17697400       0.73000700
   137  C          0.36655130       0.02053800       0.22579500
   138  C          0.63344870       0.97946200       0.77420500
   139  N          0.23793110       0.16091700       0.31299400
   140  N          0.76206890       0.83908300       0.68700600
   141  C          0.37151130       0.12908800       0.21353500
   142  C          0.62848870       0.87091200       0.78646500
   143  C          0.30636130       0.19774800       0.26002500
   144  C          0.69363870       0.80225200       0.73997500
   145  C          0.23452130       0.05672800       0.32475500
   146  C          0.76547870       0.94327200       0.67524500
   147  C          0.30104130       0.98207800       0.28188500
   148  C          0.69895870       0.01792200       0.71811500
   149  C          0.22584140       0.94932900       0.08335600
   150  C          0.77415860       0.05067100       0.91664400
   151  H          0.14252200       0.98041400       0.10552600
   152  H          0.85747800       0.01958600       0.89447400
   153  C          0.19947150       0.91901100       0.01722600
   154  C          0.80052850       0.08098900       0.98277400
   155  H          0.09548400       0.92900100      -0.00615700
   156  H          0.90451600       0.07099900       0.00615700
   157  C          0.32282150       0.87403100       0.98422400
   158  C          0.67717850       0.12596900       0.01577600
   159  H          0.30086800       0.85406800       0.93904000
   160  H          0.69913200       0.14593200       0.06096000
   161  C          0.47615140       0.85828900       0.01653500
   162  C          0.52384860       0.14171100       0.98346500
   163  H          0.55953700       0.82834800      -0.00616100
   164  H          0.44046300       0.17165200       0.00616100
   165  C          0.80419140       0.84373800       0.12943600
   166  C          0.19580860       0.15626200       0.87056400
   167  H          0.83818300       0.81653400       0.08949400
   168  H          0.16181700       0.18346600       0.91050600
   169  C          0.91032140       0.84786900       0.18675600
   170  C          0.08967860       0.15213100       0.81324400
   171  H          0.01795300       0.82311900       0.18597700
   172  H         -0.01795300       0.17688100       0.81402300
   173  C          0.86093140       0.88812800       0.24600600
   174  C          0.13906860       0.11187200       0.75399400
   175  H          0.93625900       0.89045800       0.28450800
   176  H          0.06374100       0.10954200       0.71549200
   177  C          0.70434140       0.92461800       0.24951500
   178  C          0.29565860       0.07538200       0.75048500
   179  H          0.67078600       0.95147200       0.28960700
   180  H          0.32921400       0.04852800       0.71039300
   181  N          0.43640110       0.95059700       0.18198400
   182  N          0.56359890       0.04940300       0.81801600
   183  C          0.37992130       0.93208800       0.11571500
   184  C          0.62007870       0.06791200       0.88428500
   185  C          0.50575130       0.88731800       0.08319500
   186  C          0.49424870       0.11268200       0.91680500
   187  C          0.64608130       0.88038800       0.13152500
   188  C          0.35391870       0.11961200       0.86847500
   189  C          0.59896130       0.92002800       0.19169500
   190  C          0.40103870       0.07997200       0.80830500
   191  F          0.14425100       0.68717500       0.47357400
   192  F          0.85574900       0.31282500       0.52642600
   193  F          0.24145900       0.51272600       0.41857400
   194  F          0.75854100       0.48727400       0.58142600
   195  O          0.88408890       0.68883700       0.62199400
   196  O          0.11591110       0.31116300       0.37800600
   197  H          0.84080000       0.75361400       0.64278000
   198  H          0.15920000       0.24638600       0.35722000
   199  O          0.85223870       0.76685700       0.52286400
   200  O          0.14776130       0.23314300       0.47713600
   201  C          0.94911860       0.59326800       0.52976500
   202  C          0.05088140       0.40673200       0.47023500
   203  C          0.06911140       0.59582800       0.48654500
   204  C          0.93088860       0.40417200       0.51345500
   205  C          0.11867140       0.50467900       0.45752500
   206  C          0.88132860       0.49532100       0.54247500
   207  C          0.88970860       0.69410900       0.55810600
   208  C          0.11029140       0.30589100       0.44189400
