data_RUBTUG
_symmetry_space_group_name_H-M    'P1'
_symmetry_Int_Tables_number       1
loop_
_symmetry_equiv_pos_site_id
_symmetry_equiv_pos_as_xyz
1 x,y,z
_cell_length_a                   12.99107
_cell_length_b                   4.66992
_cell_length_c                   14.49747
_cell_angle_alpha                90.0
_cell_angle_beta                 95.1712
_cell_angle_gamma                90.0
loop_
_atom_site_label
_atom_site_type_symbol
_atom_site_fract_x
_atom_site_fract_y
_atom_site_fract_z
     1  S          0.22265500       0.65160130       0.39207400
     2  S          0.27734500       0.15160130       0.10792600
     3  S          0.77734500       0.34839870       0.60792600
     4  S          0.72265500       0.84839870       0.89207400
     5  O          0.31854130       0.46674000       0.39013130
     6  O          0.18145870       0.96674000       0.10986870
     7  O          0.68145870       0.53326000       0.60986870
     8  O          0.81854130       0.03326000       0.89013130
     9  C          0.13672000       0.51748000       0.30072000
    10  C          0.36328000       0.01748000       0.19928000
    11  C          0.86328000       0.48252000       0.69928000
    12  C          0.63672000      -0.01748000       0.80072000
    13  H          0.16190000       0.56580000       0.24240000
    14  H          0.33810000       0.06580000       0.25760000
    15  H          0.83810000       0.43420000       0.75760000
    16  H          0.66190000       0.93420000       0.74240000
    17  H          0.06950000       0.60060000       0.30410000
    18  H          0.43050000       0.10060000       0.19590000
    19  H          0.93050000       0.39940000       0.69590000
    20  H          0.56950000       0.89940000       0.80410000
    21  H          0.13200000       0.31300000       0.30590000
    22  H          0.36800000       0.81300000       0.19410000
    23  H          0.86800000       0.68700000       0.69410000
    24  H          0.63200000       0.18700000       0.80590000
    25  C          0.16013000       0.52639000       0.48692000
    26  C          0.33987000       0.02639000       0.01308000
    27  C          0.83987000       0.47361000       0.51308000
    28  C          0.66013000      -0.02639000       0.98692000
    29  H          0.14610000       0.32540000       0.47950000
    30  H          0.35390000       0.82540000       0.02050000
    31  H          0.85390000       0.67460000       0.52050000
    32  H          0.64610000       0.17460000       0.97950000
    33  H          0.09620000       0.62800000       0.48990000
    34  H          0.40380000       0.12800000       0.01010000
    35  H          0.90380000       0.37200000       0.51010000
    36  H          0.59620000       0.87200000       0.98990000
    37  H          0.20370000       0.55730000       0.54310000
    38  H          0.29630000       0.05730000       0.95690000
    39  H          0.79630000       0.44270000       0.45690000
    40  H          0.70370000       0.94270000       0.04310000
    41  O          0.59417180       0.36506000       0.14026150
    42  O          0.90582820       0.86506000       0.35973850
    43  O          0.40582820       0.63494000       0.85973850
    44  O          0.09417180       0.13494000       0.64026150
    45  O          0.69206140       0.67754000       0.21440120
    46  O          0.80793860       0.17754000       0.28559880
    47  O          0.30793860       0.32246000       0.78559880
    48  O          0.19206140       0.82246000       0.71440120
    49  N          0.49124130       0.74624000       0.40121110
    50  N          0.00875870       0.24624000       0.09878890
    51  N          0.50875870       0.25376000       0.59878890
    52  N         -0.00875870       0.75376000       0.90121110
    53  N          0.63439130       0.91224000       0.36221110
    54  N          0.86560870       0.41224000       0.13778890
    55  N          0.36560870       0.08776000       0.63778890
    56  N          0.13439130       0.58776000       0.86221110
    57  H          0.68830000       0.93790000       0.33290000
    58  H          0.81170000       0.43790000       0.16710000
    59  H          0.31170000       0.06210000       0.66710000
    60  H          0.18830000       0.56210000       0.83290000
    61  N          0.61421130       0.06254000       0.43998120
    62  N          0.88578870       0.56254000       0.06001880
    63  N          0.38578870       0.93746000       0.56001880
    64  N          0.11421130       0.43746000       0.93998120
    65  N          0.54238140       0.53455000       0.26798120
    66  N          0.95761860       0.03455000       0.23201880
    67  N          0.45761860       0.46545000       0.73201880
    68  N          0.04238140       0.96545000       0.76798120
    69  N          0.61234160       0.52925000       0.20635130
    70  N          0.88765840       0.02925000       0.29364870
    71  N          0.38765840       0.47075000       0.79364870
    72  N          0.11234160      -0.02925000       0.70635130
    73  C          0.52672150       0.95385000       0.46078130
    74  C          0.97327850       0.45385000       0.03921870
    75  C          0.47327850       0.04615000       0.53921870
    76  C          0.02672150       0.54615000       0.96078130
    77  C          0.56106150       0.72325000       0.33762130
    78  C          0.93893850       0.22325000       0.16237870
    79  C          0.43893850       0.27675000       0.66237870
    80  C          0.06106150       0.77675000       0.83762130
    81  H          0.43730000       0.65670000       0.39620000
    82  H          0.06270000       0.15670000       0.10380000
    83  H          0.56270000       0.34330000       0.60380000
    84  H          0.93730000       0.84330000       0.89620000
