data_RUCFAX
_symmetry_space_group_name_H-M    'P1'
_symmetry_Int_Tables_number       1
loop_
_symmetry_equiv_pos_site_id
_symmetry_equiv_pos_as_xyz
1 x,y,z
_cell_length_a                   11.12342
_cell_length_b                   9.75752
_cell_length_c                   13.80543
_cell_angle_alpha                90.0
_cell_angle_beta                 98.448011
_cell_angle_gamma                90.0
loop_
_atom_site_label
_atom_site_type_symbol
_atom_site_fract_x
_atom_site_fract_y
_atom_site_fract_z
     1  N          0.00799120       0.22095130       0.91972900
     2  N          0.49200880       0.72095130       0.08027100
     3  N         -0.00799120       0.77904870       0.08027100
     4  N          0.50799120       0.27904870       0.91972900
     5  C         -0.00112140       0.14329160       0.83944880
     6  C          0.50112140       0.64329160       0.16055120
     7  C          0.00112140       0.85670840       0.16055120
     8  C          0.49887860       0.35670840       0.83944880
     9  O          0.06650100       0.04391120       0.82884100
    10  O          0.43349900       0.54391120       0.17115900
    11  O          0.93349900       0.95608880       0.17115900
    12  O          0.56650100       0.45608880       0.82884100
    13  C          0.89671850       0.19413180       0.76506870
    14  C          0.60328150       0.69413180       0.23493130
    15  C          0.10328150       0.80586820       0.23493130
    16  C          0.39671850       0.30586820       0.76506870
    17  C          0.84069850       0.31402180       0.81456870
    18  C          0.65930150       0.81402180       0.18543130
    19  C          0.15930150       0.68597820       0.18543130
    20  C          0.34069850       0.18597820       0.81456870
    21  C          0.91750850       0.33105170       0.91566870
    22  C          0.58249150       0.83105170       0.08433130
    23  C          0.08249150       0.66894830       0.08433130
    24  C          0.41750850       0.16894830       0.91566870
    25  C          0.09714150       0.20128170       0.00649120
    26  C          0.40285850       0.70128170      -0.00649120
    27  C          0.90285850       0.79871830      -0.00649120
    28  C          0.59714150       0.29871830       0.00649120
    29  C          0.18550140       0.32142170       0.02332120
    30  C          0.31449860       0.82142170       0.97667880
    31  C          0.81449860       0.67857830       0.97667880
    32  C          0.68550140       0.17857830       0.02332120
    33  O          0.20518110       0.39945120       0.95644100
    34  O          0.29481890       0.89945120       0.04355900
    35  O          0.79481890       0.60054880       0.04355900
    36  O          0.70518110       0.10054880       0.95644100
    37  N          0.24370130       0.33370160       0.11351100
    38  N          0.25629870       0.83370160       0.88648900
    39  N          0.75629870       0.66629840       0.88648900
    40  N          0.74370130       0.16629840       0.11351100
    41  H          0.21940000       0.27930000       0.16440000
    42  H          0.28060000       0.77930000       0.83560000
    43  H          0.78060000       0.72070000       0.83560000
    44  H          0.71940000       0.22070000       0.16440000
    45  H          0.30440000       0.40340000       0.12370000
    46  H          0.19560000       0.90340000       0.87630000
    47  H          0.69560000       0.59660000       0.87630000
    48  H          0.80440000       0.09660000       0.12370000
    49  H          0.83850000       0.11560000       0.74930000
    50  H          0.66150000       0.61560000       0.25070000
    51  H          0.16150000       0.88440000       0.25070000
    52  H          0.33850000       0.38440000       0.74930000
    53  H          0.93520000       0.21810000       0.70210000
    54  H          0.56480000       0.71810000       0.29790000
    55  H          0.06480000       0.78190000       0.29790000
    56  H          0.43520000       0.28190000       0.70210000
    57  H          0.75320000       0.29490000       0.82060000
    58  H          0.74680000       0.79490000       0.17940000
    59  H          0.24680000       0.70510000       0.17940000
    60  H          0.25320000       0.20510000       0.82060000
    61  H          0.84020000       0.39890000       0.77420000
    62  H          0.65980000       0.89890000       0.22580000
    63  H          0.15980000       0.60110000       0.22580000
    64  H          0.34020000       0.10110000       0.77420000
    65  H          0.87760000       0.32000000       0.97680000
    66  H          0.62240000       0.82000000       0.02320000
    67  H          0.12240000       0.68000000       0.02320000
    68  H          0.37760000       0.18000000       0.97680000
    69  H          0.95900000       0.42070000       0.92390000
    70  H          0.54100000       0.92070000       0.07610000
    71  H          0.04100000       0.57930000       0.07610000
    72  H          0.45900000       0.07930000       0.92390000
    73  H          0.05560000       0.18710000       0.06600000
    74  H          0.44440000       0.68710000       0.93400000
    75  H          0.94440000       0.81290000       0.93400000
    76  H          0.55560000       0.31290000       0.06600000
    77  H          0.14650000       0.11110000      -0.00520000
    78  H          0.35350000       0.61110000       0.00520000
    79  H          0.85350000       0.88890000       0.00520000
    80  H          0.64650000       0.38890000      -0.00520000
    81  C          0.95576860       0.45040160       0.23957120
    82  C          0.54423140       0.95040160       0.76042880
    83  C          0.04423140       0.54959840       0.76042880
    84  C          0.45576860       0.04959840       0.23957120
    85  C         -0.00334150       0.42665170       0.34706120
    86  C          0.50334150       0.92665170       0.65293880
    87  C          0.00334150       0.57334830       0.65293880
    88  C          0.49665850       0.07334830       0.34706120
    89  C          0.09784140       0.32126160       0.37209110
    90  C          0.40215860       0.82126160       0.62790890
    91  C          0.90215860       0.67873840       0.62790890
    92  C          0.59784140       0.17873840       0.37209110
    93  C          0.10323150       0.28448180       0.48099120
    94  C          0.39676850       0.78448180       0.51900880
    95  C          0.89676850       0.71551820       0.51900880
    96  C          0.60323150       0.21551820       0.48099120
    97  C          0.19479160       0.17565180       0.51737120
    98  C          0.30520840       0.67565180       0.48262880
    99  C          0.80520840       0.82434820       0.48262880
   100  C          0.69479160       0.32434820       0.51737120
   101  C          0.07881140       0.19238160       0.30794110
   102  C          0.42118860       0.69238160       0.69205890
   103  C          0.92118860       0.80761840       0.69205890
   104  C          0.57881140       0.30761840       0.30794110
   105  O          0.89051900       0.56446120       0.22477900
   106  O          0.60948100       0.06446120       0.77522100
   107  O          0.10948100       0.43553880       0.77522100
   108  O          0.39051900       0.93553880       0.22477900
   109  O          0.97756890       0.37464120       0.17514900
   110  O          0.52243110       0.87464120       0.82485100
   111  O          0.02243110       0.62535880       0.82485100
   112  O          0.47756890       0.12535880       0.17514900
   113  O          0.16267130       0.10777160       0.59096110
   114  O          0.33732870       0.60777160       0.40903890
   115  O          0.83732870       0.89222840       0.40903890
   116  O          0.66267130       0.39222840       0.59096110
   117  O          0.28782130       0.15483180       0.48499110
   118  O          0.21217870       0.65483180       0.51500890
   119  O          0.71217870       0.84516820       0.51500890
   120  O          0.78782130       0.34516820       0.48499110
   121  O          0.20873100       0.38315120       0.35397800
   122  O          0.29126900       0.88315120       0.64602200
   123  O          0.79126900       0.61684880       0.64602200
   124  O          0.70873100       0.11684880       0.35397800
   125  O          0.97390900       0.13132120       0.31236900
   126  O          0.52609100       0.63132120       0.68763100
   127  O          0.02609100       0.86867880       0.68763100
   128  O          0.47390900       0.36867880       0.31236900
   129  O          0.15651110       0.14929120       0.26283900
   130  O          0.34348890       0.64929120       0.73716100
   131  O          0.84348890       0.85070880       0.73716100
   132  O          0.65651110       0.35070880       0.26283900
   133  H          0.86390000       0.57110000       0.15400000
   134  H          0.63610000       0.07110000       0.84600000
   135  H          0.13610000       0.42890000       0.84600000
   136  H          0.36390000       0.92890000       0.15400000
   137  H          0.22320000       0.04860000       0.61840000
   138  H          0.27680000       0.54860000       0.38160000
   139  H          0.77680000       0.95140000       0.38160000
   140  H          0.72320000       0.45140000       0.61840000
   141  H          0.26390000       0.31570000       0.35420000
   142  H          0.23610000       0.81570000       0.64580000
   143  H          0.73610000       0.68430000       0.64580000
   144  H          0.76390000       0.18430000       0.35420000
   145  H          0.96810000       0.05020000       0.26210000
   146  H          0.53190000       0.55020000       0.73790000
   147  H          0.03190000       0.94980000       0.73790000
   148  H          0.46810000       0.44980000       0.26210000
   149  H          0.92430000       0.39880000       0.37600000
   150  H          0.57570000       0.89880000       0.62400000
   151  H          0.07570000       0.60120000       0.62400000
   152  H          0.42430000       0.10120000       0.37600000
   153  H          0.02480000       0.51600000       0.37780000
   154  H          0.47520000       0.01600000       0.62220000
   155  H          0.97520000       0.48400000       0.62220000
   156  H          0.52480000       0.98400000       0.37780000
   157  H          0.02490000       0.24910000       0.49290000
   158  H          0.47510000       0.74910000       0.50710000
   159  H          0.97510000       0.75090000       0.50710000
   160  H          0.52490000       0.25090000       0.49290000
   161  H          0.12570000       0.36790000       0.52170000
   162  H          0.37430000       0.86790000       0.47830000
   163  H          0.87430000       0.63210000       0.47830000
   164  H          0.62570000       0.13210000       0.52170000
