data_RUFCUR
_symmetry_space_group_name_H-M    'P1'
_symmetry_Int_Tables_number       1
loop_
_symmetry_equiv_pos_site_id
_symmetry_equiv_pos_as_xyz
1 x,y,z
_cell_length_a                   8.5652
_cell_length_b                   16.218615
_cell_length_c                   19.963116
_cell_angle_alpha                90.0
_cell_angle_beta                 101.16416
_cell_angle_gamma                90.0
loop_
_atom_site_label
_atom_site_type_symbol
_atom_site_fract_x
_atom_site_fract_y
_atom_site_fract_z
     1  C          0.91153000       0.17162000       0.24029150
     2  C          0.08847000       0.17162000       0.25970850
     3  C          0.41153000       0.67162000       0.24029150
     4  C          0.58847000       0.67162000       0.25970850
     5  C          0.08847000       0.82838000       0.75970850
     6  C          0.91153000       0.82838000       0.74029150
     7  C          0.58847000       0.32838000       0.75970850
     8  C          0.41153000       0.32838000       0.74029150
     9  H          0.87580000       0.22430000       0.21990000
    10  H          0.12420000       0.22430000       0.28010000
    11  H          0.37580000       0.72430000       0.21990000
    12  H          0.62420000       0.72430000       0.28010000
    13  H          0.12420000       0.77570000       0.78010000
    14  H          0.87580000       0.77570000       0.71990000
    15  H          0.62420000       0.27570000       0.78010000
    16  H          0.37580000       0.27570000       0.71990000
    17  H          0.87780000       0.12890000       0.20650000
    18  H          0.12220000       0.12890000       0.29350000
    19  H          0.37780000       0.62890000       0.20650000
    20  H          0.62220000       0.62890000       0.29350000
    21  H          0.12220000       0.87110000       0.79350000
    22  H          0.87780000       0.87110000       0.70650000
    23  H          0.62220000       0.37110000       0.79350000
    24  H          0.37780000       0.37110000       0.70650000
    25  N          0.83793000       0.15711160       0.29954120
    26  N          0.16207000       0.15711160       0.20045880
    27  N          0.33793000       0.65711160       0.29954120
    28  N          0.66207000       0.65711160       0.20045880
    29  N          0.16207000       0.84288840       0.70045880
    30  N          0.83793000       0.84288840       0.79954120
    31  N          0.66207000       0.34288840       0.70045880
    32  N          0.33793000       0.34288840       0.79954120
    33  H          0.84850000       0.10420000       0.31140000
    34  H          0.15150000       0.10420000       0.18860000
    35  H          0.34850000       0.60420000       0.31140000
    36  H          0.65150000       0.60420000       0.18860000
    37  H          0.15150000       0.89580000       0.68860000
    38  H          0.84850000       0.89580000       0.81140000
    39  H          0.65150000       0.39580000       0.68860000
    40  H          0.34850000       0.39580000       0.81140000
    41  H          0.73510000       0.17000000       0.28900000
    42  H          0.26490000       0.17000000       0.21100000
    43  H          0.23510000       0.67000000       0.28900000
    44  H          0.76490000       0.67000000       0.21100000
    45  H          0.26490000       0.83000000       0.71100000
    46  H          0.73510000       0.83000000       0.78900000
    47  H          0.76490000       0.33000000       0.71100000
    48  H          0.23510000       0.33000000       0.78900000
    49  H          0.88550000       0.18830000       0.33420000
    50  H          0.11450000       0.18830000       0.16580000
    51  H          0.38550000       0.68830000       0.33420000
    52  H          0.61450000       0.68830000       0.16580000
    53  H          0.11450000       0.81170000       0.66580000
    54  H          0.88550000       0.81170000       0.83420000
    55  H          0.61450000       0.31170000       0.66580000
    56  H          0.38550000       0.31170000       0.83420000
    57  C          0.06584000       0.81692000       0.43343160
    58  C          0.93416000       0.81692000       0.06656840
    59  C          0.56584000       0.31692000       0.43343160
    60  C          0.43416000       0.31692000       0.06656840
    61  C          0.93416000       0.18308000       0.56656840
    62  C          0.06584000       0.18308000       0.93343160
    63  C          0.43416000       0.68308000       0.56656840
    64  C          0.56584000       0.68308000       0.93343160
    65  H          0.09880000       0.84920000       0.47470000
    66  H          0.90120000       0.84920000       0.02530000
    67  H          0.59880000       0.34920000       0.47470000
    68  H          0.40120000       0.34920000       0.02530000
    69  H          0.90120000       0.15080000       0.52530000
    70  H          0.09880000       0.15080000       0.97470000
    71  H          0.40120000       0.65080000       0.52530000
    72  H          0.59880000       0.65080000       0.97470000
    73  H          0.11290000       0.76260000       0.44160000
    74  H          0.88710000       0.76260000       0.05840000
    75  H          0.61290000       0.26260000       0.44160000
    76  H          0.38710000       0.26260000       0.05840000
    77  H          0.88710000       0.23740000       0.55840000
    78  H          0.11290000       0.23740000       0.94160000
    79  H          0.38710000       0.73740000       0.55840000
    80  H          0.61290000       0.73740000       0.94160000
    81  C          0.88814000       0.80844180       0.41979160
    82  C          0.11186000       0.80844180       0.08020840
    83  C          0.38814000       0.30844180       0.41979160
    84  C          0.61186000       0.30844180       0.08020840
    85  C          0.11186000       0.19155820       0.58020840
    86  C          0.88814000       0.19155820       0.91979160
    87  C          0.61186000       0.69155820       0.58020840
    88  C          0.38814000       0.69155820       0.91979160
    89  H          0.85390000       0.78490000       0.37470000
    90  H          0.14610000       0.78490000       0.12530000
    91  H          0.35390000       0.28490000       0.37470000
    92  H          0.64610000       0.28490000       0.12530000
    93  H          0.14610000       0.21510000       0.62530000
    94  H          0.85390000       0.21510000       0.87470000
    95  H          0.64610000       0.71510000       0.62530000
    96  H          0.35390000       0.71510000       0.87470000
    97  H          0.85920000       0.77000000       0.45260000
    98  H          0.14080000       0.77000000       0.04740000
    99  H          0.35920000       0.27000000       0.45260000
   100  H          0.64080000       0.27000000       0.04740000
   101  H          0.14080000       0.23000000       0.54740000
   102  H          0.85920000       0.23000000       0.95260000
   103  H          0.64080000       0.73000000       0.54740000
   104  H          0.35920000       0.73000000       0.95260000
   105  N          0.12823000       0.85669150       0.37681120
   106  N          0.87177000       0.85669150       0.12318880
   107  N          0.62823000       0.35669150       0.37681120
   108  N          0.37177000       0.35669150       0.12318880
   109  N          0.87177000       0.14330850       0.62318880
   110  N          0.12823000       0.14330850       0.87681120
   111  N          0.37177000       0.64330850       0.62318880
   112  N          0.62823000       0.64330850       0.87681120
   113  H          0.08200000       0.83420000       0.33720000
   114  H          0.91800000       0.83420000       0.16280000
   115  H          0.58200000       0.33420000       0.33720000
   116  H          0.41800000       0.33420000       0.16280000
   117  H          0.91800000       0.16580000       0.66280000
   118  H          0.08200000       0.16580000       0.83720000
   119  H          0.41800000       0.66580000       0.66280000
   120  H          0.58200000       0.66580000       0.83720000
   121  H          0.23300000       0.84920000       0.38320000
   122  H          0.76700000       0.84920000       0.11680000
   123  H          0.73300000       0.34920000       0.38320000
   124  H          0.26700000       0.34920000       0.11680000
   125  H          0.76700000       0.15080000       0.61680000
   126  H          0.23300000       0.15080000       0.88320000
   127  H          0.26700000       0.65080000       0.61680000
   128  H          0.73300000       0.65080000       0.88320000
   129  H          0.10690000       0.91040000       0.37620000
   130  H          0.89310000       0.91040000       0.12380000
   131  H          0.60690000       0.41040000       0.37620000
   132  H          0.39310000       0.41040000       0.12380000
   133  H          0.89310000       0.08960000       0.62380000
   134  H          0.10690000       0.08960000       0.87620000
   135  H          0.39310000       0.58960000       0.62380000
   136  H          0.60690000       0.58960000       0.87620000
   137  N          0.80073000       0.88669150       0.42352120
   138  N          0.19927000       0.88669150       0.07647880
   139  N          0.30073000       0.38669150       0.42352120
   140  N          0.69927000       0.38669150       0.07647880
   141  N          0.19927000       0.11330850       0.57647880
   142  N          0.80073000       0.11330850       0.92352120
   143  N          0.69927000       0.61330850       0.57647880
   144  N          0.30073000       0.61330850       0.92352120
   145  H          0.84010000       0.91230000       0.46260000
   146  H          0.15990000       0.91230000       0.03740000
   147  H          0.34010000       0.41230000       0.46260000
   148  H          0.65990000       0.41230000       0.03740000
   149  H          0.15990000       0.08770000       0.53740000
   150  H          0.84010000       0.08770000       0.96260000
   151  H          0.65990000       0.58770000       0.53740000
   152  H          0.34010000       0.58770000       0.96260000
   153  H          0.69810000       0.87590000       0.42160000
   154  H          0.30190000       0.87590000       0.07840000
   155  H          0.19810000       0.37590000       0.42160000
   156  H          0.80190000       0.37590000       0.07840000
   157  H          0.30190000       0.12410000       0.57840000
   158  H          0.69810000       0.12410000       0.92160000
   159  H          0.80190000       0.62410000       0.57840000
   160  H          0.19810000       0.62410000       0.92160000
   161  H          0.81150000       0.91890000       0.38860000
   162  H          0.18850000       0.91890000       0.11140000
   163  H          0.31150000       0.41890000       0.38860000
   164  H          0.68850000       0.41890000       0.11140000
   165  H          0.18850000       0.08110000       0.61140000
   166  H          0.81150000       0.08110000       0.88860000
   167  H          0.68850000       0.58110000       0.61140000
   168  H          0.31150000       0.58110000       0.88860000
   169  Cl         0.30378100       0.45106500       0.26597400
   170  Cl         0.69621900       0.45106500       0.23402600
   171  Cl         0.80378100       0.95106500       0.26597400
   172  Cl         0.19621900       0.95106500       0.23402600
   173  Cl         0.69621900       0.54893500       0.73402600
   174  Cl         0.30378100       0.54893500       0.76597400
   175  Cl         0.19621900       0.04893500       0.73402600
   176  Cl         0.80378100       0.04893500       0.76597400
   177  I         -0.00000000       0.45043517       0.25000000
   178  I          0.50000000       0.95043517       0.25000000
   179  I         -0.00000000       0.54956483       0.75000000
   180  I          0.50000000       0.04956483       0.75000000
   181  Cl         0.16812900       0.58195600       0.42064400
   182  Cl         0.83187100       0.58195600       0.07935600
   183  Cl         0.66812900       0.08195600       0.42064400
   184  Cl         0.33187100       0.08195600       0.07935600
   185  Cl         0.83187100       0.41804400       0.57935600
   186  Cl         0.16812900       0.41804400       0.92064400
   187  Cl         0.33187100       0.91804400       0.57935600
   188  Cl         0.66812900       0.91804400       0.92064400
   189  Cl         0.57256800       0.54598500       0.41952300
   190  Cl         0.42743200       0.54598500       0.08047700
   191  Cl         0.07256800       0.04598500       0.41952300
   192  Cl         0.92743200       0.04598500       0.08047700
   193  Cl         0.42743200       0.45401500       0.58047700
   194  Cl         0.57256800       0.45401500       0.91952300
   195  Cl         0.92743200       0.95401500       0.58047700
   196  Cl         0.07256800       0.95401500       0.91952300
   197  I          0.88263200       0.56499011       0.41817090
   198  I          0.11736800       0.56499011       0.08182910
   199  I          0.38263200       0.06499011       0.41817090
   200  I          0.61736800       0.06499011       0.08182910
   201  I          0.11736800       0.43500989       0.58182910
   202  I          0.88263200       0.43500989       0.91817090
   203  I          0.61736800       0.93500989       0.58182910
   204  I          0.38263200       0.93500989       0.91817090
   205  Cl         0.50000000       0.23483700       0.25000000
   206  Cl        -0.00000000       0.73483700       0.25000000
   207  Cl         0.50000000       0.76516300       0.75000000
   208  Cl        -0.00000000       0.26516300       0.75000000
   209  Cl         0.47720900       0.79063500       0.40942400
   210  Cl         0.52279100       0.79063500       0.09057600
   211  Cl         0.97720900       0.29063500       0.40942400
   212  Cl         0.02279100       0.29063500       0.09057600
   213  Cl         0.52279100       0.20936500       0.59057600
   214  Cl         0.47720900       0.20936500       0.90942400
   215  Cl         0.02279100       0.70936500       0.59057600
   216  Cl         0.97720900       0.70936500       0.90942400
