data_RUFYUP
_symmetry_space_group_name_H-M    'P1'
_symmetry_Int_Tables_number       1
loop_
_symmetry_equiv_pos_site_id
_symmetry_equiv_pos_as_xyz
1 x,y,z
_cell_length_a                   5.13693
_cell_length_b                   8.32406
_cell_length_c                   19.83651
_cell_angle_alpha                90.7405
_cell_angle_beta                 94.1774
_cell_angle_gamma                96.5665
loop_
_atom_site_label
_atom_site_type_symbol
_atom_site_fract_x
_atom_site_fract_y
_atom_site_fract_z
     1  I          0.30976800       0.16642600       0.05201200
     2  I          0.69023200       0.83357400       0.94798800
     3  I          0.04909100       0.80255600       0.41435300
     4  I          0.95090900       0.19744400       0.58564700
     5  C          0.06841400       0.07539000       0.12024000
     6  C          0.93158600       0.92461000       0.87976000
     7  C          0.74401500       0.96969000       0.20614000
     8  C          0.25598500       0.03031000       0.79386000
     9  C          0.26691500       0.85559000       0.33784000
    10  C          0.73308500       0.14441000       0.66216000
    11  C          0.92101400       0.02589000       0.16004000
    12  C          0.07898600       0.97411000       0.83996000
    13  C          0.58801500       0.92601000       0.24644000
    14  C          0.41198500       0.07399000       0.75356000
    15  C          0.41541400       0.88439000       0.29424000
    16  C          0.58458600       0.11561000       0.70576000
    17  O          0.20978000       0.38175000       0.46872000
    18  O          0.79022000       0.61825000       0.53128000
    19  N          0.62511000       0.38416000       0.43642000
    20  N          0.37489000       0.61584000       0.56358000
    21  H          0.78521000       0.42736000       0.44342000
    22  H          0.21479000       0.57264000       0.55658000
    23  C          0.44611100       0.43437000       0.47403000
    24  C          0.55388900       0.56563000       0.52597000
    25  C          0.56231200       0.25838000       0.38353000
    26  C          0.43768800       0.74162000       0.61647000
    27  H          0.70321200       0.18998000       0.38403000
    28  H          0.29678800       0.81002000       0.61597000
    29  H          0.40281200       0.19138000       0.39313000
    30  H          0.59718800       0.80862000       0.60687000
    31  C          0.16651400       0.64129000       0.07644000
    32  C          0.83348600       0.35871000       0.92356000
    33  C          0.52531100       0.32798000       0.31403000
    34  C          0.47468900       0.67202000       0.68597000
    35  H          0.43421100       0.24428000       0.28363000
    36  H          0.56578900       0.75572000       0.71637000
    37  H          0.41381100       0.41408000       0.31643000
    38  H          0.58618900       0.58592000       0.68357000
    39  C         -0.00988800       0.52529000       0.18233000
    40  C          0.00988800       0.47471000       0.81767000
    41  H          0.08201200       0.61509000       0.20933000
    42  H          0.91798800       0.38491000       0.79067000
    43  H          0.10421200       0.44029000       0.18153000
    44  H          0.89578800       0.55971000       0.81847000
    45  N          0.34251300       0.68649000       0.04884000
    46  N          0.65748700       0.31351000       0.95116000
    47  C          0.73981200       0.46269000       0.21483000
    48  C          0.26018800       0.53731000       0.78517000
    49  H          0.63191200       0.55059000       0.21773000
    50  H          0.36808800       0.44941000       0.78227000
    51  H          0.64251200       0.37909000       0.18553000
    52  H          0.35748800       0.62091000       0.81447000
    53  C          0.93221400       0.58021000       0.11104000
    54  C          0.06778600       0.41979000       0.88896000
    55  H          0.81771400       0.66501000       0.11234000
    56  H          0.18228600       0.33499000       0.88766000
    57  H          0.83761400       0.49021000       0.08474000
    58  H          0.16238600       0.50979000       0.91526000
    59  C          0.78171100       0.39528000       0.28403000
    60  C          0.21828900       0.60472000       0.71597000
    61  H          0.87251100       0.47978000       0.31403000
    62  H          0.12748900       0.52022000       0.68597000
    63  H          0.89391100       0.30948000       0.28163000
    64  H          0.10608900       0.69052000       0.71837000
