data_RUHHIO
_symmetry_space_group_name_H-M    'P1'
_symmetry_Int_Tables_number       1
loop_
_symmetry_equiv_pos_site_id
_symmetry_equiv_pos_as_xyz
1 x,y,z
_cell_length_a                   10.1052014
_cell_length_b                   22.64143
_cell_length_c                   8.199821
_cell_angle_alpha                90.0
_cell_angle_beta                 102.450612
_cell_angle_gamma                90.0
loop_
_atom_site_label
_atom_site_type_symbol
_atom_site_fract_x
_atom_site_fract_y
_atom_site_fract_z
     1  S          0.13140500       0.72095200       0.75055700
     2  S          0.86859500       0.22095200       0.74944300
     3  S          0.86859500       0.27904800       0.24944300
     4  S          0.13140500       0.77904800       0.25055700
     5  N          0.14124160       0.84904700       0.79702000
     6  N          0.85875840       0.34904700       0.70298000
     7  N          0.85875840       0.15095300       0.20298000
     8  N          0.14124160       0.65095300       0.29702000
     9  N          0.01921170       0.89796700       0.56252000
    10  N          0.98078830       0.39796700       0.93748000
    11  N          0.98078830       0.10203300       0.43748000
    12  N          0.01921170       0.60203300       0.06252000
    13  C          0.27129190       0.75977900       0.86962000
    14  C          0.72870810       0.25977900       0.63038000
    15  C          0.72870810       0.24022100       0.13038000
    16  C          0.27129190       0.74022100       0.36962000
    17  C          0.00194190       0.76334900       0.80782000
    18  C         -0.00194190       0.26334900       0.69218000
    19  C         -0.00194190       0.23665100       0.19218000
    20  C          0.00194190       0.73665100       0.30782000
    21  C          0.26351180       0.82057900       0.88542000
    22  C          0.73648820       0.32057900       0.61458000
    23  C          0.73648820       0.17942100       0.11458000
    24  C          0.26351180       0.67942100       0.38542000
    25  C          0.01902180       0.82379900       0.82982000
    26  C          0.98097820       0.32379900       0.67018000
    27  C          0.98097820       0.17620100       0.17018000
    28  C          0.01902180       0.67620100       0.32982000
    29  C          0.25862000       0.89899900       0.60653000
    30  C          0.74138000       0.39899900       0.89347000
    31  C          0.74138000       0.10100100       0.39347000
    32  C          0.25862000       0.60100100       0.10653000
    33  H          0.34350000       0.88900000       0.66980000
    34  H          0.65650000       0.38900000       0.83020000
    35  H          0.65650000       0.11100000       0.33020000
    36  H          0.34350000       0.61100000       0.16980000
    37  C          0.14010190       0.88153800       0.65802000
    38  C          0.85989810       0.38153800       0.84198000
    39  C          0.85989810       0.11846200       0.34198000
    40  C          0.14010190       0.61846200       0.15802000
    41  C          0.38662000       0.73010100       0.95213000
    42  C          0.61338000       0.23010100       0.54787000
    43  C          0.61338000       0.26989900       0.04787000
    44  C          0.38662000       0.76989900       0.45213000
    45  H          0.39410000       0.68950000       0.93890000
    46  H          0.60590000       0.18950000       0.56110000
    47  H          0.60590000       0.31050000       0.06110000
    48  H          0.39410000       0.81050000       0.43890000
    49  C          0.47922000       0.82102120       0.07403000
    50  C          0.52078000       0.32102120       0.42597000
    51  C          0.52078000       0.17897880       0.92597000
    52  C          0.47922000       0.67897880       0.57403000
    53  H          0.54870000       0.84130000       0.14460000
    54  H          0.45130000       0.34130000       0.35540000
    55  H          0.45130000       0.15870000       0.85540000
    56  H          0.54870000       0.65870000       0.64460000
    57  C          0.36572000       0.85155100      -0.00977000
    58  C          0.63428000       0.35155100       0.50977000
    59  C          0.63428000       0.14844900       0.00977000
    60  C          0.36572000       0.64844900       0.49023000
    61  H          0.35840000       0.89210000       0.00430000
    62  H          0.64160000       0.39210000       0.49570000
    63  H          0.64160000       0.10790000      -0.00430000
    64  H          0.35840000       0.60790000       0.50430000
    65  C          0.92688000       0.85792110       0.89113000
    66  C          0.07312000       0.35792110       0.60887000
    67  C          0.07312000       0.14207890       0.10887000
    68  C          0.92688000       0.64207890       0.39113000
    69  H          0.94210000       0.89800000       0.91170000
    70  H          0.05790000       0.39800000       0.58830000
    71  H          0.05790000       0.10200000       0.08830000
    72  H          0.94210000       0.60200000       0.41170000
    73  C          0.12083000       0.94639110       0.36573000
    74  C          0.87917000       0.44639110       0.13427000
    75  C          0.87917000       0.05360890       0.63427000
    76  C          0.12083000       0.55360890       0.86573000
    77  H          0.11380000       0.96780000       0.26750000
    78  H          0.88620000       0.46780000       0.23250000
    79  H          0.88620000       0.03220000       0.73250000
    80  H          0.11380000       0.53220000       0.76750000
    81  C          0.00963000       0.92962100       0.41833000
    82  C         -0.00963000       0.42962100       0.08167000
    83  C         -0.00963000       0.07037900       0.58167000
    84  C          0.00963000       0.57037900       0.91833000
    85  H          0.92460000       0.93970000       0.35560000
    86  H          0.07540000       0.43970000       0.14440000
    87  H          0.07540000       0.06030000       0.64440000
    88  H          0.92460000       0.56030000       0.85560000
    89  C          0.48982000       0.76103120       0.05363000
    90  C          0.51018000       0.26103120       0.44637000
    91  C          0.51018000       0.23896880       0.94637000
    92  C          0.48982000       0.73896880       0.55363000
    93  H          0.56720000       0.74120000       0.10870000
    94  H          0.43280000       0.24120000       0.39130000
    95  H          0.43280000       0.25880000       0.89130000
    96  H          0.56720000       0.75880000       0.60870000
    97  C          0.81138000       0.83079140       0.92123000
    98  C          0.18862000       0.33079140       0.57877000
    99  C          0.18862000       0.16920860       0.07877000
   100  C          0.81138000       0.66920860       0.42123000
   101  H          0.74720000       0.85300000       0.96000000
   102  H          0.25280000       0.35300000       0.54000000
   103  H          0.25280000       0.14700000       0.04000000
   104  H          0.74720000       0.64700000       0.46000000
   105  C          0.79118000       0.77095140       0.89393000
   106  C          0.20882000       0.27095140       0.60607000
   107  C          0.20882000       0.22904860       0.10607000
   108  C          0.79118000       0.72904860       0.39393000
   109  H          0.71270000       0.75340000       0.91320000
   110  H          0.28730000       0.25340000       0.58680000
   111  H          0.28730000       0.24660000       0.08680000
   112  H          0.71270000       0.74660000       0.41320000
   113  C          0.88538000       0.73693120       0.83853000
   114  C          0.11462000       0.23693120       0.66147000
   115  C          0.11462000       0.26306880       0.16147000
   116  C          0.88538000       0.76306880       0.33853000
   117  H          0.87140000       0.69660000       0.82180000
   118  H          0.12860000       0.19660000       0.67820000
   119  H          0.12860000       0.30340000       0.17820000
   120  H          0.87140000       0.80340000       0.32180000
   121  C          0.24743000       0.93079110       0.46263000
   122  C          0.75257000       0.43079110       0.03737000
   123  C          0.75257000       0.06920890       0.53737000
   124  C          0.24743000       0.56920890       0.96263000
   125  H          0.32550000       0.94230000       0.42840000
   126  H          0.67450000       0.44230000       0.07160000
   127  H          0.67450000       0.05770000       0.57160000
   128  H          0.32550000       0.55770000       0.92840000
   129  Cl         0.68921400       0.89130300       0.50114800
   130  Cl         0.31078600       0.39130300      -0.00114800
   131  Cl         0.31078600       0.10869700       0.49885200
   132  Cl         0.68921400       0.60869700       0.00114800
   133  O          0.58792000       0.54385120       0.27603000
   134  O          0.41208000       0.04385120       0.22397000
   135  O          0.41208000       0.45614880       0.72397000
   136  O          0.58792000       0.95614880       0.77603000
   137  H          0.65380000       0.52780000       0.34280000
   138  H          0.34620000       0.02780000       0.15720000
   139  H          0.34620000       0.47220000       0.65720000
   140  H          0.65380000       0.97220000       0.84280000
   141  H          0.61520000       0.55890000       0.19440000
   142  H          0.38480000       0.05890000       0.30560000
   143  H          0.38480000       0.44110000       0.80560000
   144  H          0.61520000       0.94110000       0.69440000
   145  O          0.41963190       0.46824900       0.28492000
   146  O          0.58036810       0.96824900       0.21508000
   147  O          0.58036810       0.53175100       0.71508000
   148  O          0.41963190       0.03175100       0.78492000
   149  H          0.38870000       0.45560000       0.18650000
   150  H          0.61130000       0.95560000       0.31350000
   151  H          0.61130000       0.54440000       0.81350000
   152  H          0.38870000       0.04440000       0.68650000
   153  H          0.35470000       0.48050000       0.32650000
   154  H          0.64530000       0.98050000       0.17350000
   155  H          0.64530000       0.51950000       0.67350000
   156  H          0.35470000       0.01950000       0.82650000
   157  Cl         0.80714600       0.50190300       0.56293700
   158  Cl         0.19285400       0.00190300       0.93706300
   159  Cl         0.19285400       0.49809700       0.43706300
   160  Cl         0.80714600      -0.00190300       0.06293700
