data_RUJGAE
_symmetry_space_group_name_H-M    'P1'
_symmetry_Int_Tables_number       1
loop_
_symmetry_equiv_pos_site_id
_symmetry_equiv_pos_as_xyz
1 x,y,z
_cell_length_a                   9.1773
_cell_length_b                   14.2343
_cell_length_c                   16.2863
_cell_angle_alpha                90.0
_cell_angle_beta                 106.252
_cell_angle_gamma                90.0
loop_
_atom_site_label
_atom_site_type_symbol
_atom_site_fract_x
_atom_site_fract_y
_atom_site_fract_z
     1  N          0.27426190       0.19982120       0.93281900
     2  N          0.22573810       0.69982120       0.56718100
     3  N          0.72573810       0.80017880       0.06718100
     4  N          0.77426190       0.30017880       0.43281900
     5  S          0.34671500       0.15169400       0.86560700
     6  S          0.15328500       0.65169400       0.63439300
     7  S          0.65328500       0.84830600       0.13439300
     8  S          0.84671500       0.34830600       0.36560700
     9  S          0.15732600       0.28458400       0.90795700
    10  S          0.34267400       0.78458400       0.59204300
    11  S          0.84267400       0.71541600       0.09204300
    12  S          0.65732600       0.21541600       0.40795700
    13  O          0.45844180       0.08748110       0.91669890
    14  O          0.04155820       0.58748110       0.58330110
    15  O          0.54155820       0.91251890       0.08330110
    16  O          0.95844180       0.41251890       0.41669890
    17  O          0.40244190       0.21819110       0.81492890
    18  O          0.09755810       0.71819110       0.68507110
    19  O          0.59755810       0.78180890       0.18507110
    20  O          0.90244190       0.28180890       0.31492890
    21  O          0.11881180       0.30741110       0.98632900
    22  O          0.38118820       0.80741110       0.51367100
    23  O          0.88118820       0.69258890       0.01367100
    24  O          0.61881180       0.19258890       0.48632900
    25  O          0.02945160       0.26405110       0.83529900
    26  O          0.47054840       0.76405110       0.66470100
    27  O          0.97054840       0.73594890       0.16470100
    28  O          0.52945160       0.23594890       0.33529900
    29  C          0.20633000       0.08328160       0.79608850
    30  C          0.29367000       0.58328160       0.70391150
    31  C          0.79367000       0.91671840       0.20391150
    32  C          0.70633000       0.41671840       0.29608850
    33  H          0.16960000       0.03570000       0.82900000
    34  H          0.33040000       0.53570000       0.67100000
    35  H          0.83040000       0.96430000       0.17100000
    36  H          0.66960000       0.46430000       0.32900000
    37  H          0.24920000       0.05220000       0.75440000
    38  H          0.25080000       0.55220000       0.74560000
    39  H          0.75080000       0.94780000       0.24560000
    40  H          0.74920000       0.44780000       0.25440000
    41  H          0.12170000       0.12370000       0.76600000
    42  H          0.37830000       0.62370000       0.73400000
    43  H          0.87830000       0.87630000       0.23400000
    44  H          0.62170000       0.37630000       0.26600000
    45  C          0.25323000       0.38240150       0.88225850
    46  C          0.24677000       0.88240150       0.61774150
    47  C          0.74677000       0.61759850       0.11774150
    48  C          0.75323000       0.11759850       0.38225850
    49  H          0.34320000       0.39580000       0.92980000
    50  H          0.15680000       0.89580000       0.57020000
    51  H          0.65680000       0.60420000       0.07020000
    52  H          0.84320000       0.10420000       0.42980000
    53  H          0.18560000       0.43700000       0.87210000
    54  H          0.31440000       0.93700000       0.62790000
    55  H          0.81440000       0.56300000       0.12790000
    56  H          0.68560000       0.06300000       0.37210000
    57  H          0.28420000       0.36880000       0.83060000
    58  H          0.21580000       0.86880000       0.66940000
    59  H          0.71580000       0.63120000       0.16940000
    60  H          0.78420000       0.13120000       0.33060000
    61  C          0.57283000       0.82996160       0.86591860
    62  C          0.92717000       0.32996160       0.63408140
    63  C          0.42717000       0.17003840       0.13408140
    64  C          0.07283000       0.67003840       0.36591860
    65  H          0.65230000       0.78150000       0.88560000
    66  H          0.84770000       0.28150000       0.61440000
    67  H          0.34770000       0.21850000       0.11440000
    68  H          0.15230000       0.71850000       0.38560000
    69  H          0.55700000       0.83930000       0.80380000
    70  H          0.94300000       0.33930000       0.69620000
    71  H          0.44300000       0.16070000       0.19620000
    72  H          0.05700000       0.66070000       0.30380000
    73  C          0.42793000       0.79615150       0.88120860
    74  C          0.07207000       0.29615150       0.61879140
    75  C          0.57207000       0.20384850       0.11879140
    76  C          0.92793000       0.70384850       0.38120860
    77  H          0.39520000       0.73690000       0.84960000
    78  H          0.10480000       0.23690000       0.65040000
    79  H          0.60480000       0.26310000       0.15040000
    80  H          0.89520000       0.76310000       0.34960000
    81  H          0.44360000       0.78400000       0.94290000
    82  H          0.05640000       0.28400000       0.55710000
    83  H          0.55640000       0.21600000       0.05710000
    84  H          0.94360000       0.71600000       0.44290000
    85  O          0.31610160       0.86577100       0.85283100
    86  O          0.18389840       0.36577100       0.64716900
    87  O          0.68389840       0.13422900       0.14716900
    88  O          0.81610160       0.63422900       0.35283100
    89  C          0.17392000       0.83849160       0.86528850
    90  C          0.32608000       0.33849160       0.63471150
    91  C          0.82608000       0.16150840       0.13471150
    92  C          0.67392000       0.66150840       0.36528850
    93  H          0.15190000       0.77270000       0.84600000
    94  H          0.34810000       0.27270000       0.65400000
    95  H          0.84810000       0.22730000       0.15400000
    96  H          0.65190000       0.72730000       0.34600000
    97  H          0.09270000       0.87860000       0.82920000
    98  H          0.40730000       0.37860000       0.67080000
    99  H          0.90730000       0.12140000       0.17080000
   100  H          0.59270000       0.62140000       0.32920000
   101  C          0.17023000       0.84611160       0.95640850
   102  C          0.32977000       0.34611160       0.54359150
   103  C          0.82977000       0.15388840       0.04359150
   104  C          0.67023000       0.65388840       0.45640850
   105  H          0.07650000       0.81660000       0.96310000
   106  H          0.42350000       0.31660000       0.53690000
   107  H          0.92350000       0.18340000       0.03690000
   108  H          0.57650000       0.68340000       0.46310000
   109  H          0.25840000       0.81270000      -0.00590000
   110  H          0.24160000       0.31270000       0.50590000
   111  H          0.74160000       0.18730000       0.00590000
   112  H          0.75840000       0.68730000       0.49410000
   113  O          0.17463170       0.94240100       0.98008100
   114  O          0.32536830       0.44240100       0.51991900
   115  O          0.82536830       0.05759900       0.01991900
   116  O          0.67463170       0.55759900       0.48008100
   117  C          0.18332000       0.95310170       0.06801140
   118  C          0.31668000       0.45310170       0.43198860
   119  C          0.81668000       0.04689830       0.93198860
   120  C          0.68332000       0.54689830       0.56801140
   121  H          0.26270000       0.91120000       0.10300000
   122  H          0.23730000       0.41120000       0.39700000
   123  H          0.73730000       0.08880000       0.89700000
   124  H          0.76270000       0.58880000       0.60300000
   125  H          0.08510000       0.93590000       0.07790000
   126  H          0.41490000       0.43590000       0.42210000
   127  H          0.91490000       0.06410000       0.92210000
   128  H          0.58510000       0.56410000       0.57790000
   129  C          0.22082000       0.05345160       0.09320140
   130  C          0.27918000       0.55345160       0.40679860
   131  C          0.77918000       0.94654840       0.90679860
   132  C          0.72082000       0.44654840       0.59320140
   133  H          0.14460000       0.09490000       0.05500000
   134  H          0.35540000       0.59490000       0.44500000
   135  H          0.85540000       0.90510000       0.94500000
   136  H          0.64460000       0.40510000       0.55500000
   137  H          0.21480000       0.06320000       0.15240000
   138  H          0.28520000       0.56320000       0.34760000
   139  H          0.78520000       0.93680000       0.84760000
   140  H          0.71480000       0.43680000       0.65240000
   141  N          0.62502000       0.91978130       0.91164880
   142  N          0.87498000       0.41978130       0.58835120
   143  N          0.37498000       0.08021870       0.08835120
   144  N          0.12502000       0.58021870       0.41164880
   145  H          0.62892800       0.91161800       0.96538200
   146  H          0.87107200       0.41161800       0.53461800
   147  H          0.37107200       0.08838200       0.03461800
   148  H          0.12892800       0.58838200       0.46538200
   149  H          0.55772800       0.96591800       0.89028500
   150  H          0.94227200       0.46591800       0.60971500
   151  H          0.44227200       0.03408200       0.10971500
   152  H          0.05772800       0.53408200       0.39028500
   153  N          0.16382000       0.45412140       0.10408120
   154  N          0.33618000       0.95412140       0.39591880
   155  N          0.83618000       0.54587860       0.89591880
   156  N          0.66382000       0.04587860       0.60408120
   157  H          0.15723000       0.42201900       0.06661800
   158  H          0.34277000       0.92201900       0.43338200
   159  H          0.84277000       0.57798100       0.93338200
   160  H          0.65723000       0.07798100       0.56661800
   161  S          0.32686600       0.51234400       0.13340300
   162  S          0.17313400       0.01234400       0.36659700
   163  S          0.67313400       0.48765600       0.86659700
   164  S          0.82686600       0.98765600       0.63340300
   165  S          0.06543600       0.41875400       0.16889300
   166  S          0.43456400       0.91875400       0.33110700
   167  S          0.93456400       0.58124600       0.83110700
   168  S          0.56543600       0.08124600       0.66889300
   169  O          0.41752000       0.47433150       0.08394120
   170  O          0.08248000       0.97433150       0.41605880
   171  O          0.58248000       0.52566850       0.91605880
   172  O          0.91752000       0.02566850       0.58394120
   173  O          0.38098180       0.51043130       0.22423100
   174  O          0.11901820       0.01043130       0.27576900
   175  O          0.61901820       0.48956870       0.77576900
   176  O          0.88098180       0.98956870       0.72423100
   177  O          0.92353830       0.38860110       0.11399100
   178  O          0.57646170       0.88860110       0.38600900
   179  O          0.07646170       0.61139890       0.88600900
   180  O          0.42353830       0.11139890       0.61399100
   181  O          0.06764170       0.49183110       0.22885100
   182  O          0.43235830      -0.00816890       0.27114900
   183  O          0.93235830       0.50816890       0.77114900
   184  O          0.56764170       0.00816890       0.72885100
   185  C          0.27273000       0.62683180       0.10034170
   186  C          0.22727000       0.12683180       0.39965830
   187  C          0.72727000       0.37316820       0.89965830
   188  C          0.77273000       0.87316820       0.60034170
   189  H          0.36240000       0.66750000       0.11390000
   190  H          0.13760000       0.16750000       0.38610000
   191  H          0.63760000       0.33250000       0.88610000
   192  H          0.86240000       0.83250000       0.61390000
   193  H          0.20050000       0.64980000       0.13010000
   194  H          0.29950000       0.14980000       0.36990000
   195  H          0.79950000       0.35020000       0.86990000
   196  H          0.70050000       0.85020000       0.63010000
   197  H          0.22470000       0.62750000       0.03850000
   198  H          0.27530000       0.12750000       0.46150000
   199  H          0.77530000       0.37250000       0.96150000
   200  H          0.72470000       0.87250000       0.53850000
   201  C          0.16303000       0.32126160       0.22232150
   202  C          0.33697000       0.82126160       0.27767850
   203  C          0.83697000       0.67873840       0.77767850
   204  C          0.66303000       0.17873840       0.72232150
   205  H          0.11150000       0.29780000       0.26340000
   206  H          0.38850000       0.79780000       0.23660000
   207  H          0.88850000       0.70220000       0.73660000
   208  H          0.61150000       0.20220000       0.76340000
   209  H          0.26710000       0.33950000       0.25270000
   210  H          0.23290000       0.83950000       0.24730000
   211  H          0.73290000       0.66050000       0.74730000
   212  H          0.76710000       0.16050000       0.75270000
   213  H          0.16520000       0.27180000       0.18080000
   214  H          0.33480000       0.77180000       0.31920000
   215  H          0.83480000       0.72820000       0.81920000
   216  H          0.66520000       0.22820000       0.68080000
