data_RUKKEN01
_symmetry_space_group_name_H-M    'P1'
_symmetry_Int_Tables_number       1
loop_
_symmetry_equiv_pos_site_id
_symmetry_equiv_pos_as_xyz
1 x,y,z
_cell_length_a                   17.5692
_cell_length_b                   9.74301
_cell_length_c                   19.4922
_cell_angle_alpha                90.0
_cell_angle_beta                 90.0
_cell_angle_gamma                90.0
loop_
_atom_site_label
_atom_site_type_symbol
_atom_site_fract_x
_atom_site_fract_y
_atom_site_fract_z
     1  I          0.39443214       0.39655300       0.46981912
     2  I          0.10556786       0.60344700       0.96981912
     3  I          0.60556786       0.89655300       0.03018088
     4  I          0.89443214       0.10344700       0.53018088
     5  I          0.60556786       0.60344700       0.53018088
     6  I          0.89443214       0.39655300       0.03018088
     7  I          0.39443214       0.10344700       0.96981912
     8  I          0.10556786       0.89655300       0.46981912
     9  I          0.37258200       0.11901300       0.50336615
    10  I          0.12741800       0.88098700       0.00336615
    11  I          0.62741800       0.61901300      -0.00336615
    12  I          0.87258200       0.38098700       0.49663385
    13  I          0.62741800       0.88098700       0.49663385
    14  I          0.87258200       0.11901300      -0.00336615
    15  I          0.37258200       0.38098700       0.00336615
    16  I          0.12741800       0.61901300       0.50336615
    17  S          0.41292500       0.68087100       0.43383400
    18  S          0.08707500       0.31912900       0.93383400
    19  S          0.58707500       0.18087100       0.06616600
    20  S          0.91292500       0.81912900       0.56616600
    21  S          0.58707500       0.31912900       0.56616600
    22  S          0.91292500       0.68087100       0.06616600
    23  S          0.41292500       0.81912900       0.93383400
    24  S          0.08707500       0.18087100       0.43383400
    25  S          0.18577500       0.52885100       0.24439500
    26  S          0.31422500       0.47114900       0.74439500
    27  S          0.81422500       0.02885100       0.25560500
    28  S          0.68577500       0.97114900       0.75560500
    29  S          0.81422500       0.47114900       0.75560500
    30  S          0.68577500       0.52885100       0.25560500
    31  S          0.18577500       0.97114900       0.74439500
    32  S          0.31422500       0.02885100       0.24439500
    33  S          0.32428500       0.71398100       0.07675500
    34  S          0.17571500       0.28601900       0.57675500
    35  S          0.67571500       0.21398100       0.42324500
    36  S          0.82428500       0.78601900       0.92324500
    37  S          0.67571500       0.28601900       0.92324500
    38  S          0.82428500       0.71398100       0.42324500
    39  S          0.32428500       0.78601900       0.57675500
    40  S          0.17571500       0.21398100       0.07675500
    41  S          0.55229500       0.85764100       0.26633500
    42  S          0.94770500       0.14235900       0.76633500
    43  S          0.44770500       0.35764100       0.23366500
    44  S          0.05229500       0.64235900       0.73366500
    45  S          0.44770500       0.14235900       0.73366500
    46  S          0.05229500       0.85764100       0.23366500
    47  S          0.55229500       0.64235900       0.76633500
    48  S          0.94770500       0.35764100       0.26633500
    49  C          0.32162000       0.71274000       0.39312000
    50  C          0.17838000       0.28726000       0.89312000
    51  C          0.67838000       0.21274000       0.10688000
    52  C          0.82162000       0.78726000       0.60688000
    53  C          0.67838000       0.28726000       0.60688000
    54  C          0.82162000       0.71274000       0.10688000
    55  C          0.32162000       0.78726000       0.89312000
    56  C          0.17838000       0.21274000       0.39312000
    57  H          0.28142000       0.70564000       0.42852000
    58  H          0.21858000       0.29436000       0.92852000
    59  H          0.71858000       0.20564000       0.07148000
    60  H          0.78142000       0.79436000       0.57148000
    61  H          0.71858000       0.29436000       0.57148000
    62  H          0.78142000       0.70564000       0.07148000
    63  H          0.28142000       0.79436000       0.92852000
    64  H          0.21858000       0.20564000       0.42852000
    65  H          0.32132000       0.80834000       0.37582000
    66  H          0.17868000       0.19166000       0.87582000
    67  H          0.67868000       0.30834000       0.12418000
    68  H          0.82132000       0.69166000       0.62418000
    69  H          0.67868000       0.19166000       0.62418000
    70  H          0.82132000       0.80834000       0.12418000
    71  H          0.32132000       0.69166000       0.87582000
    72  H          0.17868000       0.30834000       0.37582000
    73  C          0.30102000       0.61794000       0.33422000
    74  C          0.19898000       0.38206000       0.83422000
    75  C          0.69898000       0.11794000       0.16578000
    76  C          0.80102000       0.88206000       0.66578000
    77  C          0.69898000       0.38206000       0.66578000
    78  C          0.80102000       0.61794000       0.16578000
    79  C          0.30102000       0.88206000       0.83422000
    80  C          0.19898000       0.11794000       0.33422000
    81  H          0.30422000       0.52134000       0.34982000
    82  H          0.19578000       0.47866000       0.84982000
    83  H          0.69578000       0.02134000       0.15018000
    84  H          0.80422000       0.97866000       0.65018000
    85  H          0.69578000       0.47866000       0.65018000
    86  H          0.80422000       0.52134000       0.15018000
    87  H          0.30422000       0.97866000       0.84982000
    88  H          0.19578000       0.02134000       0.34982000
    89  H          0.33792000       0.63054000       0.29632000
    90  H          0.16208000       0.36946000       0.79632000
    91  H          0.66208000       0.13054000       0.20368000
    92  H          0.83792000       0.86946000       0.70368000
    93  H          0.66208000       0.36946000       0.70368000
    94  H          0.83792000       0.63054000       0.20368000
    95  H          0.33792000       0.86946000       0.79632000
    96  H          0.16208000       0.13054000       0.29632000
    97  C          0.22122000       0.64734000       0.30842000
    98  C          0.27878000       0.35266000       0.80842000
    99  C          0.77878000       0.14734000       0.19158000
   100  C          0.72122000       0.85266000       0.69158000
   101  C          0.77878000       0.35266000       0.69158000
   102  C          0.72122000       0.64734000       0.19158000
   103  C          0.22122000       0.85266000       0.80842000
   104  C          0.27878000       0.14734000       0.30842000
   105  H          0.22032000       0.74104000       0.28882000
   106  H          0.27968000       0.25896000       0.78882000
   107  H          0.77968000       0.24104000       0.21118000
   108  H          0.72032000       0.75896000       0.71118000
   109  H          0.77968000       0.25896000       0.71118000
   110  H          0.72032000       0.74104000       0.21118000
   111  H          0.22032000       0.75896000       0.78882000
   112  H          0.27968000       0.24104000       0.28882000
   113  H          0.18602000       0.64634000       0.34802000
   114  H          0.31398000       0.35366000       0.84802000
   115  H          0.81398000       0.14634000       0.15198000
   116  H          0.68602000       0.85366000       0.65198000
   117  H          0.81398000       0.35366000       0.65198000
   118  H          0.68602000       0.64634000       0.15198000
   119  H          0.18602000       0.85366000       0.84802000
   120  H          0.31398000       0.14634000       0.34802000
   121  C          0.25342000       0.54753000       0.17432000
   122  C          0.24658000       0.45247000       0.67432000
   123  C          0.74658000       0.04753000       0.32568000
   124  C          0.75342000       0.95247000       0.82568000
   125  C          0.74658000       0.45247000       0.82568000
   126  C          0.75342000       0.54753000       0.32568000
   127  C          0.25342000       0.95247000       0.67432000
   128  C          0.24658000       0.04753000       0.17432000
   129  H          0.30422000       0.51653000       0.19002000
   130  H          0.19578000       0.48347000       0.69002000
   131  H          0.69578000       0.01653000       0.30998000
   132  H          0.80422000       0.98347000       0.80998000
   133  H          0.69578000       0.48347000       0.80998000
   134  H          0.80422000       0.51653000       0.30998000
   135  H          0.30422000       0.98347000       0.69002000
   136  H          0.19578000       0.01653000       0.19002000
   137  H          0.23772000       0.48743000       0.13592000
   138  H          0.26228000       0.51257000       0.63592000
   139  H          0.76228000      -0.01257000       0.36408000
   140  H          0.73772000       0.01257000       0.86408000
   141  H          0.76228000       0.51257000       0.86408000
   142  H          0.73772000       0.48743000       0.36408000
   143  H          0.23772000       0.01257000       0.63592000
   144  H          0.26228000      -0.01257000       0.13592000
   145  C          0.25962000       0.69453000       0.14842000
   146  C          0.24038000       0.30547000       0.64842000
   147  C          0.74038000       0.19453000       0.35158000
   148  C          0.75962000       0.80547000       0.85158000
   149  C          0.74038000       0.30547000       0.85158000
   150  C          0.75962000       0.69453000       0.35158000
   151  C          0.25962000       0.80547000       0.64842000
   152  C          0.24038000       0.19453000       0.14842000
   153  H          0.27702000       0.75393000       0.18652000
   154  H          0.22298000       0.24607000       0.68652000
   155  H          0.72298000       0.25393000       0.31348000
   156  H          0.77702000       0.74607000       0.81348000
   157  H          0.72298000       0.24607000       0.81348000
   158  H          0.77702000       0.75393000       0.31348000
   159  H          0.27702000       0.74607000       0.68652000
   160  H          0.22298000       0.25393000       0.18652000
   161  H          0.20842000       0.72653000       0.13442000
   162  H          0.29158000       0.27347000       0.63442000
   163  H          0.79158000       0.22653000       0.36558000
   164  H          0.70842000       0.77347000       0.86558000
   165  H          0.79158000       0.27347000       0.86558000
   166  H          0.70842000       0.72653000       0.36558000
   167  H          0.20842000       0.77347000       0.63442000
   168  H          0.29158000       0.22653000       0.13442000
   169  C          0.41622000       0.67854000       0.11562000
   170  C          0.08378000       0.32146000       0.61562000
   171  C          0.58378000       0.17854000       0.38438000
   172  C          0.91622000       0.82146000       0.88438000
   173  C          0.58378000       0.32146000       0.88438000
   174  C          0.91622000       0.67854000       0.38438000
   175  C          0.41622000       0.82146000       0.61562000
   176  C          0.08378000       0.17854000       0.11562000
   177  H          0.41402000       0.58734000       0.13792000
   178  H          0.08598000       0.41266000       0.63792000
   179  H          0.58598000       0.08734000       0.36208000
   180  H          0.91402000       0.91266000       0.86208000
   181  H          0.58598000       0.41266000       0.86208000
   182  H          0.91402000       0.58734000       0.36208000
   183  H          0.41402000       0.91266000       0.63792000
   184  H          0.08598000       0.08734000       0.13792000
   185  H          0.45492000       0.67354000       0.07882000
   186  H          0.04508000       0.32646000       0.57882000
   187  H          0.54508000       0.17354000       0.42118000
   188  H          0.95492000       0.82646000       0.92118000
   189  H          0.54508000       0.32646000       0.92118000
   190  H          0.95492000       0.67354000       0.42118000
   191  H          0.45492000       0.82646000       0.57882000
   192  H          0.04508000       0.17354000       0.07882000
   193  C          0.44202000       0.78394000       0.16852000
   194  C          0.05798000       0.21606000       0.66852000
   195  C          0.55798000       0.28394000       0.33148000
   196  C          0.94202000       0.71606000       0.83148000
   197  C          0.55798000       0.21606000       0.83148000
   198  C          0.94202000       0.78394000       0.33148000
   199  C          0.44202000       0.71606000       0.66852000
   200  C          0.05798000       0.28394000       0.16852000
   201  H          0.44682000       0.87494000       0.14632000
   202  H          0.05318000       0.12506000       0.64632000
   203  H          0.55318000       0.37494000       0.35368000
   204  H          0.94682000       0.62506000       0.85368000
   205  H          0.55318000       0.12506000       0.85368000
   206  H          0.94682000       0.87494000       0.35368000
   207  H          0.44682000       0.62506000       0.64632000
   208  H          0.05318000       0.37494000       0.14632000
   209  H          0.40322000       0.79134000       0.20522000
   210  H          0.09678000       0.20866000       0.70522000
   211  H          0.59678000       0.29134000       0.29478000
   212  H          0.90322000       0.70866000       0.79478000
   213  H          0.59678000       0.20866000       0.79478000
   214  H          0.90322000       0.79134000       0.29478000
   215  H          0.40322000       0.70866000       0.70522000
   216  H          0.09678000       0.29134000       0.20522000
   217  C          0.51802000       0.74334000       0.19982000
   218  C          0.98198000       0.25666000       0.69982000
   219  C          0.48198000       0.24334000       0.30018000
   220  C          0.01802000       0.75666000       0.80018000
   221  C          0.48198000       0.25666000       0.80018000
   222  C          0.01802000       0.74334000       0.30018000
   223  C          0.51802000       0.75666000       0.69982000
   224  C          0.98198000       0.24334000       0.19982000
   225  H          0.55652000       0.73924000       0.16282000
   226  H          0.94348000       0.26076000       0.66282000
   227  H          0.44348000       0.23924000       0.33718000
   228  H          0.05652000       0.76076000       0.83718000
   229  H          0.44348000       0.26076000       0.83718000
   230  H          0.05652000       0.73924000       0.33718000
   231  H          0.55652000       0.76076000       0.66282000
   232  H          0.94348000       0.23924000       0.16282000
   233  H          0.51322000       0.64994000       0.21932000
   234  H          0.98678000       0.35006000       0.71932000
   235  H          0.48678000       0.14994000       0.28068000
   236  H          0.01322000       0.85006000       0.78068000
   237  H          0.48678000       0.35006000       0.78068000
   238  H          0.01322000       0.64994000       0.28068000
   239  H          0.51322000       0.85006000       0.71932000
   240  H          0.98678000       0.14994000       0.21932000
   241  C          0.48042000       0.83534000       0.33222000
   242  C          0.01958000       0.16466000       0.83222000
   243  C          0.51958000       0.33534000       0.16778000
   244  C          0.98042000       0.66466000       0.66778000
   245  C          0.51958000       0.16466000       0.66778000
   246  C          0.98042000       0.83534000       0.16778000
   247  C          0.48042000       0.66466000       0.83222000
   248  C          0.01958000       0.33534000       0.33222000
   249  H          0.49012000       0.90184000       0.36962000
   250  H          0.00988000       0.09816000       0.86962000
   251  H          0.50988000       0.40184000       0.13038000
   252  H          0.99012000       0.59816000       0.63038000
   253  H          0.50988000       0.09816000       0.63038000
   254  H          0.99012000       0.90184000       0.13038000
   255  H          0.49012000       0.59816000       0.86962000
   256  H          0.00988000       0.40184000       0.36962000
   257  H          0.42992000       0.85644000       0.31242000
   258  H          0.07008000       0.14356000       0.81242000
   259  H          0.57008000       0.35644000       0.18758000
   260  H          0.92992000       0.64356000       0.68758000
   261  H          0.57008000       0.14356000       0.68758000
   262  H          0.92992000       0.85644000       0.18758000
   263  H          0.42992000       0.64356000       0.81242000
   264  H          0.07008000       0.35644000       0.31242000
   265  C          0.47872000       0.69034000       0.36242000
   266  C          0.02128000       0.30966000       0.86242000
   267  C          0.52128000       0.19034000       0.13758000
   268  C          0.97872000       0.80966000       0.63758000
   269  C          0.52128000       0.30966000       0.63758000
   270  C          0.97872000       0.69034000       0.13758000
   271  C          0.47872000       0.80966000       0.86242000
   272  C          0.02128000       0.19034000       0.36242000
   273  H          0.53032000       0.66474000       0.37822000
   274  H          0.96968000       0.33526000       0.87822000
   275  H          0.46968000       0.16474000       0.12178000
   276  H          0.03032000       0.83526000       0.62178000
   277  H          0.46968000       0.33526000       0.62178000
   278  H          0.03032000       0.66474000       0.12178000
   279  H          0.53032000       0.83526000       0.87822000
   280  H          0.96968000       0.16474000       0.37822000
   281  H          0.46302000       0.62434000       0.32652000
   282  H          0.03698000       0.37566000       0.82652000
   283  H          0.53698000       0.12434000       0.17348000
   284  H          0.96302000       0.87566000       0.67348000
   285  H          0.53698000       0.37566000       0.67348000
   286  H          0.96302000       0.62434000       0.17348000
   287  H          0.46302000       0.87566000       0.82652000
   288  H          0.03698000       0.12434000       0.32652000
