data_RULXON
_symmetry_space_group_name_H-M    'P1'
_symmetry_Int_Tables_number       1
loop_
_symmetry_equiv_pos_site_id
_symmetry_equiv_pos_as_xyz
1 x,y,z
_cell_length_a                   11.44049
_cell_length_b                   20.913516
_cell_length_c                   14.307611
_cell_angle_alpha                90.0
_cell_angle_beta                 99.72001
_cell_angle_gamma                90.0
loop_
_atom_site_label
_atom_site_type_symbol
_atom_site_fract_x
_atom_site_fract_y
_atom_site_fract_z
     1  B          0.28302170       0.82630900       0.95281130
     2  B          0.21697830       0.32630900       0.54718870
     3  B          0.71697830       0.17369100       0.04718870
     4  B          0.78302170       0.67369100       0.45281130
     5  C          0.46573150       0.01418800       0.71233120
     6  C          0.03426850       0.51418800       0.78766880
     7  C          0.53426850       0.98581200       0.28766880
     8  C          0.96573150       0.48581200       0.21233120
     9  C          0.46672150       0.03416800       0.61308120
    10  C          0.03327850       0.53416800       0.88691880
    11  C          0.53327850       0.96583200       0.38691880
    12  C          0.96672150       0.46583200       0.11308120
    13  C          0.43732160       0.09609900       0.58599130
    14  C          0.06267840       0.59609900       0.91400870
    15  C          0.56267840       0.90390100       0.41400870
    16  C          0.93732160       0.40390100       0.08599130
    17  H          0.41480000       0.12530000       0.63060000
    18  H          0.08520000       0.62530000       0.86940000
    19  H          0.58520000       0.87470000       0.36940000
    20  H          0.91480000       0.37470000       0.13060000
    21  C          0.55965160       0.88374800       0.50705130
    22  C          0.94034840       0.38374800      -0.00705130
    23  C          0.44034840       0.11625200       0.49294870
    24  C          0.05965160       0.61625200       0.00705130
    25  H          0.57940000       0.84080000       0.52500000
    26  H          0.92060000       0.34080000       0.97500000
    27  H          0.42060000       0.15920000       0.47500000
    28  H          0.07940000       0.65920000       0.02500000
    29  C          0.52811150       0.92586800       0.57253120
    30  C          0.97188850       0.42586800       0.92746880
    31  C          0.47188850       0.07413200       0.42746880
    32  C          0.02811150       0.57413200       0.07253120
    33  C          0.52389160       0.90311800       0.66993130
    34  C          0.97610840       0.40311800       0.83006870
    35  C          0.47610840       0.09688200       0.33006870
    36  C          0.02389160       0.59688200       0.16993130
    37  C          0.49851140       0.98979800       0.54697120
    38  C          0.00148860       0.48979800       0.95302880
    39  C          0.50148860       0.01020200       0.45302880
    40  C         -0.00148860       0.51020200       0.04697120
    41  C          0.48203140       0.88857800       0.00810120
    42  C          0.01796860       0.38857800       0.49189880
    43  C          0.51796860       0.11142200      -0.00810120
    44  C          0.98203140       0.61142200       0.50810120
    45  H          0.47920000       0.87390000       0.07050000
    46  H          0.02080000       0.37390000       0.42950000
    47  H          0.52080000       0.12610000       0.92950000
    48  H          0.97920000       0.62610000       0.57050000
    49  C          0.57419150       0.92722900      -0.00677870
    50  C          0.92580850       0.42722900       0.50677870
    51  C          0.42580850       0.07277100       0.00677870
    52  C          0.07419150       0.57277100       0.49322130
    53  H          0.63420000       0.93900000       0.04460000
    54  H          0.86580000       0.43900000       0.45540000
    55  H          0.36580000       0.06100000       0.95540000
    56  H          0.13420000       0.56100000       0.54460000
    57  C          0.57848150       0.94880900       0.90220130
    58  C          0.92151850       0.44880900       0.59779870
    59  C          0.42151850       0.05119100       0.09779870
    60  C          0.07848150       0.55119100       0.40220130
    61  H          0.64000000       0.97660000       0.89030000
    62  H          0.86000000       0.47660000       0.60970000
    63  H          0.36000000       0.02340000       0.10970000
    64  H          0.14000000       0.52340000       0.39030000
    65  C          0.49133150       0.92897800       0.82935120
    66  C          0.00866850       0.42897800       0.67064880
    67  C          0.50866850       0.07102200       0.17064880
    68  C         -0.00866850       0.57102200       0.32935120
    69  C          0.40171150       0.88954800       0.84744120
    70  C          0.09828850       0.38954800       0.65255880
    71  C          0.59828850       0.11045200       0.15255880
    72  C          0.90171150       0.61045200       0.34744120
    73  H          0.34340000       0.87530000       0.79640000
    74  H          0.15660000       0.37530000       0.70360000
    75  H          0.65660000       0.12470000       0.20360000
    76  H          0.84340000       0.62470000       0.29640000
    77  C          0.29993150       0.80432800       0.06416120
    78  C          0.20006850       0.30432800       0.43583880
    79  C          0.70006850       0.19567200       0.93583880
    80  C          0.79993150       0.69567200       0.56416120
    81  C          0.31048160       0.74252900       0.09978130
    82  C          0.18951840       0.24252900       0.40021870
    83  C          0.68951840       0.25747100       0.90021870
    84  C          0.81048160       0.75747100       0.59978130
    85  C          0.31652180       0.72749900       0.19507140
    86  C          0.18347820       0.22749900       0.30492860
    87  C          0.68347820       0.27250100       0.80492860
    88  C          0.81652180       0.77250100       0.69507140
    89  C          0.31232190       0.77537100       0.25969130
    90  C          0.18767810       0.27537100       0.24030870
    91  C          0.68767810       0.22462900       0.74030870
    92  C          0.81232190       0.72462900       0.75969130
    93  C          0.30071170       0.83745900       0.22894130
    94  C          0.19928830       0.33745900       0.27105870
    95  C          0.69928830       0.16254100       0.77105870
    96  C          0.80071170       0.66254100       0.72894130
    97  C          0.29440160       0.85037800       0.13373120
    98  C          0.20559840       0.35037800       0.36626880
    99  C          0.70559840       0.14962200       0.86626880
   100  C          0.79440160       0.64962200       0.63373120
   101  C          0.16025150       0.86888800       0.93393110
   102  C          0.33974850       0.36888800       0.56606890
   103  C          0.83974850       0.13111200       0.06606890
   104  C          0.66025150       0.63111200       0.43393110
   105  C          0.05616160       0.84032800       0.95209130
   106  C          0.44383840       0.34032800       0.54790870
   107  C          0.94383840       0.15967200       0.04790870
   108  C          0.55616160       0.65967200       0.45209130
   109  C          0.94878840       0.87109900       0.94560140
   110  C          0.55121160       0.37109900       0.55439860
   111  C          0.05121160       0.12890100       0.05439860
   112  C          0.44878840       0.62890100       0.44560140
   113  C          0.94087840       0.93393100       0.91663150
   114  C          0.55912160       0.43393100       0.58336850
   115  C          0.05912160       0.06606900       0.08336850
   116  C          0.44087840       0.56606900       0.41663150
   117  C          0.03982170       0.96492900       0.89766140
   118  C          0.46017830       0.46492900       0.60233860
   119  C          0.96017830       0.03507100       0.10233860
   120  C          0.53982170       0.53507100       0.39766140
   121  C          0.14654150       0.93260800       0.90862120
   122  C          0.35345850       0.43260800       0.59137880
   123  C          0.85345850       0.06739200       0.09137880
   124  C          0.64654150       0.56739200       0.40862120
   125  C          0.28617150       0.76867800       0.87563120
   126  C          0.21382850       0.26867800       0.62436880
   127  C          0.71382850       0.23132200       0.12436880
   128  C          0.78617150       0.73132200       0.37563120
   129  C          0.39060170       0.73437900       0.87701130
   130  C          0.10939830       0.23437900       0.62298870
   131  C          0.60939830       0.26562100       0.12298870
   132  C          0.89060170       0.76562100       0.37701130
   133  C          0.40793190       0.68860900       0.81143140
   134  C          0.09206810       0.18860900       0.68856860
   135  C          0.59206810       0.31139100       0.18856860
   136  C          0.90793190       0.81139100       0.31143140
   137  C          0.31552000       0.67439900       0.73861130
   138  C          0.18448000       0.17439900       0.76138870
   139  C          0.68448000       0.32560100       0.26138870
   140  C          0.81552000       0.82560100       0.23861130
   141  C          0.21078180       0.70674900       0.73343130
   142  C          0.28921820       0.20674900       0.76656870
   143  C          0.78921820       0.29325100       0.26656870
   144  C          0.71078180       0.79325100       0.23343130
   145  C          0.19746160       0.75284800       0.80027130
   146  C          0.30253840       0.25284800       0.69972870
   147  C          0.80253840       0.24715200       0.19972870
   148  C          0.69746160       0.74715200       0.30027130
   149  F          0.31283100       0.69196500       0.04127800
   150  F          0.18716900       0.19196500       0.45872200
   151  F          0.68716900       0.30803500       0.95872200
   152  F          0.81283100       0.80803500       0.54127800
   153  F          0.32820120       0.66644600       0.22405800
   154  F          0.17179880       0.16644600       0.27594200
   155  F          0.67179880       0.33355400       0.77594200
   156  F          0.82820120       0.83355400       0.72405800
   157  F          0.31956140       0.76193700       0.35191800
   158  F          0.18043860       0.26193700       0.14808200
   159  F          0.68043860       0.23806300       0.64808200
   160  F          0.81956140       0.73806300       0.85191800
   161  F          0.29641120       0.88522600       0.29139800
   162  F          0.20358880       0.38522600       0.20860200
   163  F          0.70358880       0.11477400       0.70860200
   164  F          0.79641120       0.61477400       0.79139800
   165  F          0.28346900       0.91290500       0.10908700
   166  F          0.21653100       0.41290500       0.39091300
   167  F          0.71653100       0.08709500       0.89091300
   168  F          0.78346900       0.58709500       0.60908700
   169  F          0.05861900       0.77798500       0.97801800
   170  F          0.44138100       0.27798500       0.52198200
   171  F          0.94138100       0.22201500       0.02198200
   172  F          0.55861900       0.72201500       0.47801800
   173  F          0.85322900       0.84162600       0.96759900
   174  F          0.64677100       0.34162600       0.53240100
   175  F          0.14677100       0.15837400       0.03240100
   176  F          0.35322900       0.65837400       0.46759900
   177  F          0.83786900       0.96560600       0.90916110
   178  F          0.66213100       0.46560600       0.59083890
   179  F          0.16213100       0.03439400       0.09083890
   180  F          0.33786900       0.53439400       0.40916110
   181  F          0.03338100       0.02666500       0.87145900
   182  F          0.46661900       0.52666500       0.62854100
   183  F          0.96661900       0.97333500       0.12854100
   184  F          0.53338100       0.47333500       0.37145900
   185  F          0.24018900       0.96901500       0.89456700
   186  F          0.25981100       0.46901500       0.60543300
   187  F          0.75981100       0.03098500       0.10543300
   188  F          0.74018900       0.53098500       0.39456700
   189  F          0.48372900       0.74598500       0.94696800
   190  F          0.01627100       0.24598500       0.55303200
   191  F          0.51627100       0.25401500       0.05303200
   192  F          0.98372900       0.75401500       0.44696800
   193  F          0.51188120       0.65796600       0.81735900
   194  F         -0.01188120       0.15796600       0.68264100
   195  F          0.48811880       0.34203400       0.18264100
   196  F          0.01188120       0.84203400       0.31735900
   197  F          0.32917140       0.63013600       0.67375900
   198  F          0.17082860       0.13013600       0.82624100
   199  F          0.67082860       0.36986400       0.32624100
   200  F          0.82917140       0.86986400       0.17375900
   201  F          0.12123110       0.69485600       0.66180800
   202  F          0.37876890       0.19485600       0.83819200
   203  F          0.87876890       0.30514400       0.33819200
   204  F          0.62123110       0.80514400       0.16180800
   205  F          0.09183900       0.78274500       0.78617800
   206  F          0.40816100       0.28274500       0.71382200
   207  F          0.90816100       0.21725500       0.21382200
   208  F          0.59183900       0.71725500       0.28617800
   209  N          0.49276130       0.94947700       0.73345100
   210  N          0.00723870       0.44947700       0.76654900
   211  N          0.50723870       0.05052300       0.26654900
   212  N         -0.00723870       0.55052300       0.23345100
   213  N          0.39528120       0.87070700       0.93685100
   214  N          0.10471880       0.37070700       0.56314900
   215  N          0.60471880       0.12929300       0.06314900
   216  N          0.89528120       0.62929300       0.43685100
   217  O          0.44410120       0.05018600       0.77353900
   218  O          0.05589880       0.55018600       0.72646100
   219  O          0.55589880       0.94981400       0.22646100
   220  O          0.94410120       0.44981400       0.27353900
   221  O          0.54630130       0.84877600       0.69667900
   222  O          0.95369870       0.34877600       0.80332100
   223  O          0.45369870       0.15122400       0.30332100
   224  O          0.04630130       0.65122400       0.19667900
   225  C          0.16558180      -0.00258890       0.45850160
   226  C          0.33441820       0.49741110       0.04149840
   227  C          0.83441820       0.00258890       0.54149840
   228  C          0.66558180       0.50258890       0.95850160
   229  C          0.21421170       0.91913100       0.58292140
   230  C          0.28578830       0.41913100       0.91707860
   231  C          0.78578830       0.08086900       0.41707860
   232  C          0.71421170       0.58086900       0.08292140
   233  C          0.20498170       0.93601100       0.48842140
   234  C          0.29501830       0.43601100       0.01157860
   235  C          0.79501830       0.06398900       0.51157860
   236  C          0.70498170       0.56398900       0.98842140
   237  H          0.22530000       0.90610000       0.44390000
   238  H          0.27470000       0.40610000       0.05610000
   239  H          0.77470000       0.09390000       0.55610000
   240  H          0.72530000       0.59390000       0.94390000
   241  C          0.13562000       0.04020110       0.52397180
   242  C          0.36438000       0.54020110       0.97602820
   243  C          0.86438000       0.95979890       0.47602820
   244  C          0.63562000       0.45979890       0.02397180
   245  H          0.10910000       0.08190000       0.50430000
   246  H          0.39090000       0.58190000      -0.00430000
   247  H          0.89090000       0.91810000       0.49570000
   248  H          0.60910000       0.41810000       0.00430000
   249  C          0.27612000       0.81246100       0.55504150
   250  C          0.22388000       0.31246100       0.94495850
   251  C          0.72388000       0.18753900       0.44495850
   252  C          0.77612000       0.68753900       0.05504150
   253  H          0.20150000       0.80230000       0.51310000
   254  H          0.29850000       0.30230000       0.98690000
   255  H          0.79850000       0.19770000       0.48690000
   256  H          0.70150000       0.69770000       0.01310000
   257  H          0.30640000       0.77400000       0.59020000
   258  H          0.19360000       0.27400000       0.90980000
   259  H          0.69360000       0.22600000       0.40980000
   260  H          0.80640000       0.72600000       0.09020000
   261  H          0.33430000       0.82750000       0.51700000
   262  H          0.16570000       0.32750000       0.98300000
   263  H          0.66570000       0.17250000       0.48300000
   264  H          0.83430000       0.67250000       0.01700000
   265  C          0.18346190       0.96264110       0.64764150
   266  C          0.31653810       0.46264110       0.85235850
   267  C          0.81653810       0.03735890       0.35235850
   268  C          0.68346190       0.53735890       0.14764150
   269  H          0.18950000       0.95110000       0.71250000
   270  H          0.31050000       0.45110000       0.78750000
   271  H          0.81050000       0.04890000       0.28750000
   272  H          0.68950000       0.54890000       0.21250000
   273  C          0.14412000       0.02281110       0.61772180
   274  C          0.35588000       0.52281110       0.88227820
   275  C          0.85588000       0.97718890       0.38227820
   276  C          0.64412000       0.47718890       0.11772180
   277  H          0.12260000       0.05250000       0.66220000
   278  H          0.37740000       0.55250000       0.83780000
   279  H          0.87740000       0.94750000       0.33780000
   280  H          0.62260000       0.44750000       0.16220000
   281  C          0.15572000       0.01506130       0.35518180
   282  C          0.34428000       0.51506130       0.14481820
   283  C          0.84428000       0.98493870       0.64481820
   284  C          0.65572000       0.48493870       0.85518180
   285  H          0.10780000       0.05390000       0.34240000
   286  H          0.39220000       0.55390000       0.15760000
   287  H          0.89220000       0.94610000       0.65760000
   288  H          0.60780000       0.44610000       0.84240000
   289  H          0.11770000       0.98000000       0.31580000
   290  H          0.38230000       0.48000000       0.18420000
   291  H          0.88230000       0.02000000       0.68420000
   292  H          0.61770000       0.52000000       0.81580000
   293  H          0.23500000       0.02270000       0.34030000
   294  H          0.26500000       0.52270000       0.15970000
   295  H          0.76500000       0.97730000       0.65970000
   296  H          0.73500000       0.47730000       0.84030000
   297  O          0.25591140       0.86121700       0.62014100
   298  O          0.24408860       0.36121700       0.87985900
   299  O          0.74408860       0.13878300       0.37985900
   300  O          0.75591140       0.63878300       0.12014100
