data_RUPPEX
_symmetry_space_group_name_H-M    'P1'
_symmetry_Int_Tables_number       1
loop_
_symmetry_equiv_pos_site_id
_symmetry_equiv_pos_as_xyz
1 x,y,z
_cell_length_a                   11.212912
_cell_length_b                   13.7452
_cell_length_c                   16.1212
_cell_angle_alpha                65.46111
_cell_angle_beta                 77.7571
_cell_angle_gamma                71.5669
loop_
_atom_site_label
_atom_site_type_symbol
_atom_site_fract_x
_atom_site_fract_y
_atom_site_fract_z
     1  C          0.21962000       0.14302000       0.63668000
     2  C          0.78038000       0.85698000       0.36332000
     3  H          0.29122000       0.10942000       0.66858000
     4  H          0.70878000       0.89058000       0.33142000
     5  C          0.14172000       0.24002000       0.64338000
     6  C          0.85828000       0.75998000       0.35662000
     7  C          0.03063000       0.28843000       0.59718000
     8  C          0.96937000       0.71157000       0.40282000
     9  H          0.97307000       0.35093000       0.60418000
    10  H          0.02693000       0.64907000       0.39582000
    11  C          0.00733000       0.24433000       0.54298000
    12  C          0.99267000       0.75567000       0.45702000
    13  H          0.93437000       0.27813000       0.51258000
    14  H          0.06563000       0.72187000       0.48742000
    15  C          0.07503000       0.11033000       0.46538000
    16  C          0.92497000       0.88967000       0.53462000
    17  H          0.00283000       0.14263000       0.43428000
    18  H         -0.00283000       0.85737000       0.56572000
    19  C          0.16464000       0.02743000       0.44828000
    20  C          0.83536000       0.97257000       0.55172000
    21  H          0.15684000       0.00843000       0.40098000
    22  H          0.84316000       0.99157000       0.59902000
    23  C          0.37124000       0.88877000       0.47348000
    24  C          0.62876000       0.11123000       0.52652000
    25  H          0.36284000       0.86907000       0.42678000
    26  H          0.63716000       0.13093000       0.57322000
    27  C          0.47844000       0.84237000       0.51548000
    28  C          0.52156000       0.15763000       0.48452000
    29  H          0.54784000       0.80017000       0.49158000
    30  H          0.45216000       0.19983000       0.50842000
    31  C          0.60023000       0.81067000       0.63808000
    32  C          0.39977000       0.18933000       0.36192000
    33  H          0.67123000       0.77317000       0.61128000
    34  H          0.32877000       0.22683000       0.38872000
    35  C          0.60753000       0.81978000       0.71658000
    36  C          0.39247000       0.18022000       0.28342000
    37  H          0.68573000       0.79898000       0.73858000
    38  H          0.31427000       0.20102000       0.26142000
    39  C          0.50232000       0.85398000       0.85588000
    40  C          0.49768000       0.14602000       0.14412000
    41  H          0.58092000       0.83178000       0.87768000
    42  H          0.41908000       0.16822000       0.12232000
    43  C          0.39833000       0.87847000       0.90958000
    44  C          0.60167000       0.12153000       0.09042000
    45  H          0.40523000       0.87817000       0.96618000
    46  H          0.59477000       0.12183000       0.03382000
    47  C          0.16742000       0.91177000       0.94218000
    48  C          0.83258000       0.08823000       0.05782000
    49  H          0.17482000       0.90767000       0.00012000
    50  H          0.82518000       0.09233000      -0.00012000
    51  C          0.05112000       0.92437000       0.91948000
    52  C          0.94888000       0.07563000       0.08052000
    53  H          0.98038000       0.92977000       0.96118000
    54  H          0.01962000       0.07023000       0.03882000
    55  C          0.03892000       0.92898000       0.83258000
    56  C          0.96108000       0.07102000       0.16742000
    57  C          0.14362000       0.92478000       0.77104850
    58  C          0.85638000       0.07522000       0.22895150
    59  H          0.13452000       0.92828000       0.71375850
    60  H          0.86548000       0.07172000       0.28624150
    61  C          0.26562000       0.91538000       0.79088000
    62  C          0.73438000       0.08462000       0.20912000
    63  C          0.27662000       0.90498000       0.87988000
    64  C          0.72338000       0.09502000       0.12012000
    65  C          0.37892000       0.90318000       0.72838000
    66  C          0.62108000       0.09682000       0.27162000
    67  C          0.49612000       0.86098000       0.76628000
    68  C          0.50388000       0.13902000       0.23372000
    69  C          0.37942000       0.91878000       0.63398000
    70  C          0.62058000       0.08122000       0.36602000
    71  C          0.48653000       0.85708000       0.59538000
    72  C          0.51347000       0.14292000       0.40462000
    73  C          0.27962000       0.99108000       0.57518000
    74  C          0.72038000       0.00892000       0.42482000
    75  C          0.27003000       0.96797000       0.49958000
    76  C          0.72997000       0.03203000       0.50042000
    77  C          0.19572000       0.09222000       0.58368000
    78  C          0.80428000       0.90778000       0.41632000
    79  C          0.09003000       0.14913000       0.53148000
    80  C          0.90997000       0.85087000       0.46852000
    81  C          0.05393000       0.37793000       0.74908000
    82  C          0.94607000       0.62207000       0.25092000
    83  C          0.01233000       0.33023000       0.84057000
    84  C          0.98767000       0.66977000       0.15943000
    85  H          0.05483000       0.25913000       0.87597000
    86  H          0.94517000       0.74087000       0.12403000
    87  C          0.90636000       0.38876000       0.87957000
    88  C          0.09364000       0.61124000       0.12043000
    89  H          0.87946000       0.35636000       0.94117000
    90  H          0.12054000       0.64364000       0.05883000
    91  C          0.84196000       0.49256000       0.82895000
    92  C          0.15804000       0.50744000       0.17105000
    93  H          0.77176000       0.53106000       0.85555000
    94  H          0.22824000       0.46894000       0.14445000
    95  C          0.88146000       0.53894000       0.73955000
    96  C          0.11854000       0.46106000       0.26045000
    97  H          0.83706000       0.60954000       0.70465000
    98  H          0.16294000       0.39046000       0.29535000
    99  C          0.98687000       0.48373000       0.69857000
   100  C          0.01313000       0.51627000       0.30143000
   101  H          0.01273000       0.51783000       0.63707000
   102  H          0.98727000       0.48217000       0.36293000
   103  C          0.25522000       0.41192000       0.61008000
   104  C          0.74478000       0.58808000       0.38992000
   105  C          0.30603000       0.47543000       0.63267000
   106  C          0.69397000       0.52457000       0.36733000
   107  H          0.31223000       0.45853000       0.69407000
   108  H          0.68777000       0.54147000       0.30593000
   109  C          0.34814000       0.56334000       0.56676000
   110  C          0.65186000       0.43666000       0.43324000
   111  H          0.37974000       0.60674000       0.58366000
   112  H          0.62026000       0.39326000       0.41634000
   113  C          0.34314000       0.58673000       0.47547000
   114  C          0.65686000       0.41327000       0.52453000
   115  H          0.37094000       0.64623000       0.43047000
   116  H          0.62906000       0.35377000       0.56953000
   117  C          0.29734000       0.52273000       0.45187000
   118  C          0.70266000       0.47727000       0.54813000
   119  H          0.29604000       0.53753000       0.39017000
   120  H          0.70396000       0.46247000       0.60983000
   121  C          0.25283000       0.43633000       0.51728000
   122  C          0.74717000       0.56367000       0.48272000
   123  H          0.22093000       0.39373000       0.49958000
   124  H          0.77907000       0.60627000       0.50042000
   125  C          0.78988000       0.06972000       0.78718000
   126  C          0.21012000       0.93028000       0.21282000
   127  C          0.82587000       0.15313000       0.79478000
   128  C          0.17413000       0.84687000       0.20522000
   129  H          0.90847000       0.14123000       0.80568000
   130  H          0.09153000       0.85877000       0.19432000
   131  C          0.74066000       0.25343000       0.78627000
   132  C          0.25934000       0.74657000       0.21373000
   133  H          0.76666000       0.30843000       0.79137000
   134  H          0.23334000       0.69157000       0.20863000
   135  C          0.61736000       0.27343000       0.77037000
   136  C          0.38264000       0.72657000       0.22963000
   137  H          0.56006000       0.34083000       0.76607000
   138  H          0.43994000       0.65917000       0.23393000
   139  C          0.57997000       0.19213000       0.76088000
   140  C          0.42003000       0.80787000       0.23912000
   141  H          0.49737000       0.20493000       0.74948000
   142  H          0.50263000       0.79507000       0.25052000
   143  C          0.66557000       0.09193000       0.76848000
   144  C          0.33443000       0.90807000       0.23152000
   145  H          0.64007000       0.03813000       0.76108000
   146  H          0.35993000       0.96187000       0.23892000
   147  C          0.81948000       0.84638000       0.90518000
   148  C          0.18052000       0.15362000       0.09482000
   149  C          0.84267000       0.73577000       0.92198000
   150  C          0.15733000       0.26423000       0.07802000
   151  H          0.89617000       0.70677000       0.88058000
   152  H          0.10383000       0.29323000       0.11942000
   153  C          0.78716000       0.66707000       0.00033000
   154  C          0.21284000       0.33293000      -0.00033000
   155  H          0.80376000       0.59237000       0.01113000
   156  H          0.19624000       0.40763000       0.98887000
   157  C          0.70766000       0.70866000       0.06223000
   158  C          0.29234000       0.29134000       0.93777000
   159  H          0.67066000       0.66236000       0.11483000
   160  H          0.32934000       0.33764000       0.88517000
   161  C          0.68387000       0.81616000       0.04602000
   162  C          0.31613000       0.18384000       0.95398000
   163  H          0.62937000       0.84436000       0.08762000
   164  H          0.37063000       0.15564000       0.91238000
   165  C          0.73857000       0.88647000       0.96868000
   166  C          0.26143000       0.11353000       0.03132000
   167  H          0.72117000       0.96097000       0.95918000
   168  H          0.27883000       0.03903000       0.04082000
   169  P          0.19864600       0.29937600       0.70467500
   170  P          0.80135400       0.70062400       0.29532500
   171  P          0.89207400       0.93251400       0.79761600
   172  P          0.10792600       0.06748600       0.20238400
   173  C          0.82309000       0.37052000       0.19487000
   174  C          0.17691000       0.62948000       0.80513000
   175  H          0.83399000       0.31722000       0.16717000
   176  H          0.16601000       0.68278000       0.83283000
   177  H          0.87609000       0.41962000       0.15697000
   178  H          0.12391000       0.58038000       0.84303000
   179  C          0.86688900       0.31799000       0.27159000
   180  C          0.13311100       0.68201000       0.72841000
   181  H          0.95358900       0.31889000       0.26519000
   182  H          0.04641100       0.68111000       0.73481000
   183  H          0.86118900       0.24289000       0.29419000
   184  H          0.13881100       0.75711000       0.70581000
   185  H          0.81908900       0.35199000       0.31379000
   186  H          0.18091100       0.64801000       0.68621000
   187  C          0.64437900       0.39538200       0.16781600
   188  C          0.35562100       0.60461800       0.83218400
   189  H          0.64067900       0.32518200       0.21721600
   190  H          0.35932100       0.67481800       0.78278400
   191  H          0.69227900       0.38098200       0.11461600
   192  H          0.30772100       0.61901800       0.88538400
   193  C          0.51158500       0.46748700       0.14531000
   194  C          0.48841500       0.53251300       0.85469000
   195  H          0.46278500       0.42448700       0.14011000
   196  H          0.53721500       0.57551300       0.85989000
   197  H          0.51648500       0.52888700       0.08831000
   198  H          0.48351500       0.47111300       0.91169000
   199  H          0.47198500       0.49458700       0.19321000
   200  H          0.52801500       0.50541300       0.80679000
   201  O          0.68663000       0.43954000       0.18735000
   202  O          0.31337000       0.56046000       0.81265000
