data_RUPSAW
_symmetry_space_group_name_H-M    'P1'
_symmetry_Int_Tables_number       1
loop_
_symmetry_equiv_pos_site_id
_symmetry_equiv_pos_as_xyz
1 x,y,z
_cell_length_a                   19.440915
_cell_length_b                   6.36953
_cell_length_c                   15.587411
_cell_angle_alpha                90.0
_cell_angle_beta                 107.8446
_cell_angle_gamma                90.0
loop_
_atom_site_label
_atom_site_type_symbol
_atom_site_fract_x
_atom_site_fract_y
_atom_site_fract_z
     1  Br         0.44478400       0.80450150       0.51183600
     2  Br         0.55521600       0.30450150       0.98816400
     3  Br         0.55521600       0.19549850       0.48816400
     4  Br         0.44478400       0.69549850       0.01183600
     5  N          0.11777250       0.33344920       0.50208350
     6  N          0.88222750       0.83344920      -0.00208350
     7  N          0.88222750       0.66655080       0.49791650
     8  N          0.11777250       0.16655080       0.00208350
     9  N          0.06447250       0.18320910       0.48400360
    10  N          0.93552750       0.68320910       0.01599640
    11  N          0.93552750       0.81679090       0.51599640
    12  N          0.06447250       0.31679090       0.98400360
    13  C          0.08809310       0.03291000       0.44057400
    14  C          0.91190690       0.53291000       0.05942600
    15  C          0.91190690       0.96709000       0.55942600
    16  C          0.08809310       0.46709000       0.94057400
    17  C          0.15582340       0.07991000       0.43165440
    18  C          0.84417660       0.57991000       0.06834560
    19  C          0.84417660       0.92009000       0.56834560
    20  C          0.15582340       0.42009000       0.93165440
    21  C          0.17407300       0.27341000       0.47365380
    22  C          0.82592700       0.77341000       0.02634620
    23  C          0.82592700       0.72659000       0.52634620
    24  C          0.17407300       0.22659000       0.97365380
    25  N          0.04453340       0.86009010       0.40722410
    26  N          0.95546660       0.36009010       0.09277590
    27  N          0.95546660       0.13990990       0.59277590
    28  N          0.04453340       0.63990990       0.90722410
    29  C          0.23840310       0.40101100       0.48531390
    30  C          0.76159690       0.90101100       0.01468610
    31  C          0.76159690       0.59898900       0.51468610
    32  C          0.23840310       0.09898900       0.98531390
    33  C          0.24504370       0.60481100       0.52084430
    34  C          0.75495630       0.10481100       0.97915570
    35  C          0.75495630       0.39518900       0.47915570
    36  C          0.24504370       0.89518900       0.02084430
    37  C          0.30625370       0.72421200       0.52974450
    38  C          0.69374630       0.22421200       0.97025550
    39  C          0.69374630       0.27578800       0.47025550
    40  C          0.30625370       0.77578800       0.02974450
    41  C          0.36160350       0.63901200       0.50274440
    42  C          0.63839650       0.13901200      -0.00274440
    43  C          0.63839650       0.36098800       0.49725560
    44  C          0.36160350       0.86098800       0.00274440
    45  C          0.35771360       0.43931300       0.46807520
    46  C          0.64228640       0.93931300       0.03192480
    47  C          0.64228640       0.56068700       0.53192480
    48  C          0.35771360       0.06068700       0.96807520
    49  C          0.29675330       0.32051300       0.46007460
    50  C          0.70324670       0.82051300       0.03992540
    51  C          0.70324670       0.67948700       0.53992540
    52  C          0.29675330       0.17948700       0.96007460
    53  H          0.12025100       0.43317000       0.54026900
    54  H          0.87974900       0.93317000       0.95973100
    55  H          0.87974900       0.56683000       0.45973100
    56  H          0.12025100       0.06683000       0.04026900
    57  H          0.18575600       0.01717000       0.40806900
    58  H          0.81424400       0.51717000       0.09193100
    59  H          0.81424400      -0.01717000       0.59193100
    60  H          0.18575600       0.48283000       0.90806900
    61  H          0.01795800       0.82582000       0.43767300
    62  H          0.98204200       0.32582000       0.06232700
    63  H          0.98204200       0.17418000       0.56232700
    64  H          0.01795800       0.67418000       0.93767300
    65  H          0.06576000       0.76981000       0.39277400
    66  H          0.93424000       0.26981000       0.10722600
    67  H          0.93424000       0.23019000       0.60722600
    68  H          0.06576000       0.73019000       0.89277400
    69  H          0.21254500       0.64713000       0.53925200
    70  H          0.78745500       0.14713000       0.96074800
    71  H          0.78745500       0.35287000       0.46074800
    72  H          0.21254500       0.85287000       0.03925200
    73  H          0.31264200       0.86515000       0.55265500
    74  H          0.68735800       0.36515000       0.94734500
    75  H          0.68735800       0.13485000       0.44734500
    76  H          0.31264200       0.63485000       0.05265500
    77  H          0.39895700       0.37217000       0.44367100
    78  H          0.60104300       0.87217000       0.05632900
    79  H          0.60104300       0.62783000       0.55632900
    80  H          0.39895700       0.12783000       0.94367100
    81  H          0.29425500       0.16619000       0.43017200
    82  H          0.70574500       0.66619000       0.06982800
    83  H          0.70574500       0.83381000       0.56982800
    84  H          0.29425500       0.33381000       0.93017200
    85  Br         0.43947400       0.02684160       0.75523700
    86  Br         0.56052600       0.52684160       0.74476300
    87  Br         0.56052600       0.97315840       0.24476300
    88  Br         0.43947400       0.47315840       0.25523700
    89  N          0.07857300       0.75030850       0.66670380
    90  N          0.92142700       0.25030850       0.83329620
    91  N          0.92142700       0.24969150       0.33329620
    92  N          0.07857300       0.74969150       0.16670380
    93  N          0.12312270       0.59273890       0.65566350
    94  N          0.87687730       0.09273890       0.84433650
    95  N          0.87687730       0.40726110       0.34433650
    96  N          0.12312270       0.90726110       0.15566350
    97  C          0.18408330       0.62151100       0.72240410
    98  C          0.81591670       0.12151100       0.77759590
    99  C          0.81591670       0.37848900       0.27759590
   100  C          0.18408330       0.87848900       0.22240410
   101  C          0.17911350       0.79371200       0.77659420
   102  C          0.82088650       0.29371200       0.72340580
   103  C          0.82088650       0.20628800       0.22340580
   104  C          0.17911350       0.70628800       0.27659420
   105  C          0.11034340       0.87111000       0.73921390
   106  C          0.88965660       0.37111000       0.76078610
   107  C          0.88965660       0.12889000       0.26078610
   108  C          0.11034340       0.62889000       0.23921390
   109  N          0.07340350       0.02851100       0.76793430
   110  N          0.92659650       0.52851100       0.73206570
   111  N          0.92659650       0.97148900       0.23206570
   112  N          0.07340350       0.47148900       0.26793430
   113  C          0.24554330       0.47791100       0.73364410
   114  C          0.75445670       0.97791100       0.76635590
   115  C          0.75445670       0.52208900       0.26635590
   116  C          0.24554330       0.02208900       0.23364410
   117  C          0.23359370       0.26931100       0.70426440
   118  C          0.76640630       0.76931100       0.79573560
   119  C          0.76640630       0.73068900       0.29573560
   120  C          0.23359370       0.23068900       0.20426440
   121  C          0.29153380       0.13931200       0.70993460
   122  C          0.70846620       0.63931200       0.79006540
   123  C          0.70846620       0.86068800       0.29006540
   124  C          0.29153380       0.36068800       0.20993460
   125  C          0.36093380       0.21091200       0.74705450
   126  C          0.63906620       0.71091200       0.75294550
   127  C          0.63906620       0.78908800       0.25294550
   128  C          0.36093380       0.28908800       0.24705450
   129  C          0.37373380       0.41371300       0.77969500
   130  C          0.62626620       0.91371300       0.72030500
   131  C          0.62626620       0.58628700       0.22030500
   132  C          0.37373380       0.08628700       0.27969500
   133  C          0.31597350       0.54401300       0.77290480
   134  C          0.68402650       0.04401300       0.72709520
   135  C          0.68402650       0.45598700       0.22709520
   136  C          0.31597350       0.95598700       0.27290480
   137  H          0.04255900       0.76116000       0.63057400
   138  H          0.95744100       0.26116000       0.86942600
   139  H          0.95744100       0.23884000       0.36942600
   140  H          0.04255900       0.73884000       0.13057400
   141  H          0.21555400       0.83816000       0.82537000
   142  H          0.78444600       0.33816000       0.67463000
   143  H          0.78444600       0.16184000       0.17463000
   144  H          0.21555400       0.66184000       0.32537000
   145  H          0.03746300       0.06417000       0.72907900
   146  H          0.96253700       0.56417000       0.77092100
   147  H          0.96253700       0.93583000       0.27092100
   148  H          0.03746300       0.43583000       0.22907900
   149  H          0.10424600       0.13614000       0.80556100
   150  H          0.89575400       0.63614000       0.69443900
   151  H          0.89575400       0.86386000       0.19443900
   152  H          0.10424600       0.36386000       0.30556100
   153  H          0.18915700       0.22715000       0.68186700
   154  H          0.81084300       0.72715000       0.81813300
   155  H          0.81084300       0.77285000       0.31813300
   156  H          0.18915700       0.27285000       0.18186700
   157  H          0.28095500       0.00719000       0.69357000
   158  H          0.71904500       0.50719000       0.80643000
   159  H          0.71904500      -0.00719000       0.30643000
   160  H          0.28095500       0.49281000       0.19357000
   161  H          0.42554300       0.47013000       0.80725200
   162  H          0.57445700       0.97013000       0.69274800
   163  H          0.57445700       0.52987000       0.19274800
   164  H          0.42554300       0.02987000       0.30725200
   165  H          0.32745600       0.65719000       0.79627100
   166  H          0.67254400       0.15719000       0.70372900
   167  H          0.67254400       0.34281000       0.20372900
   168  H          0.32745600       0.84281000       0.29627100
