data_RUQKUM
_symmetry_space_group_name_H-M    'P1'
_symmetry_Int_Tables_number       1
loop_
_symmetry_equiv_pos_site_id
_symmetry_equiv_pos_as_xyz
1 x,y,z
_cell_length_a                   7.26392
_cell_length_b                   9.68642
_cell_length_c                   10.81073
_cell_angle_alpha                99.0762
_cell_angle_beta                 103.1972
_cell_angle_gamma                91.6522
loop_
_atom_site_label
_atom_site_type_symbol
_atom_site_fract_x
_atom_site_fract_y
_atom_site_fract_z
     1  Cl         0.84766800       0.43148600       0.70128500
     2  Cl         0.15233200       0.56851400       0.29871500
     3  Cl         0.66193800       0.22091500       0.45850500
     4  Cl         0.33806200       0.77908500       0.54149500
     5  Cl         0.80051100       0.85164500       0.43341600
     6  Cl         0.19948900       0.14835500       0.56658400
     7  O          0.63132000       0.64031150       0.21266130
     8  O          0.36868000       0.35968850       0.78733870
     9  H          0.58720000       0.57780000       0.15150000
    10  H          0.41280000       0.42220000       0.84850000
    11  O          0.50603000       0.39435170       0.09930150
    12  O          0.49397000       0.60564830       0.90069850
    13  O          0.44153000       0.24117180       0.21700160
    14  O          0.55847000       0.75882820       0.78299840
    15  H          0.38460000       0.19880000       0.14620000
    16  H          0.61540000       0.80120000       0.85380000
    17  C          0.63162000       0.44359190       0.32603170
    18  C          0.36838000       0.55640810       0.67396830
    19  C          0.67363000       0.58542000       0.32232170
    20  C          0.32637000       0.41458000       0.67767830
    21  C          0.77732000       0.48732000       0.55459170
    22  C          0.22268000       0.51268000       0.44540830
    23  C          0.68942000       0.39488190       0.44412180
    24  C          0.31058000       0.60511810       0.55587820
    25  C          0.75933000       0.67573190       0.43622180
    26  C          0.24067000       0.32426810       0.56377820
    27  C          0.52243000       0.35582000       0.20329190
    28  C          0.47757000       0.64418000       0.79670810
    29  C          0.81113000       0.62722000       0.55144180
    30  C          0.18887000       0.37278000       0.44855820
    31  H          0.86840000       0.68850000       0.62660000
    32  H          0.13160000       0.31150000       0.37340000
    33  N          0.28482000       0.04814170       0.02518170
    34  N          0.71518000       0.95185830       0.97481830
    35  N          0.10033000       0.82732000       0.84158830
    36  N          0.89967000       0.17268000       0.15841170
    37  C          0.24103000       0.92642000       0.06007190
    38  C          0.75897000       0.07358000       0.93992810
    39  C          0.23953000       0.05912000       0.90018000
    40  C          0.76047000       0.94088000       0.09982000
    41  H          0.27010000       0.14230000       0.87450000
    42  H          0.72990000       0.85770000       0.12550000
    43  C          0.14563000       0.81622000       0.96578810
    44  C          0.85437000       0.18378000       0.03421190
    45  C          0.29804000       0.91473000       0.19992000
    46  C          0.70196000       0.08527000       0.80008000
    47  H          0.35010000       0.00420000       0.24930000
    48  H          0.64990000      -0.00420000       0.75070000
    49  H          0.39150000       0.84700000       0.21220000
    50  H          0.60850000       0.15300000       0.78780000
    51  H          0.18900000       0.88560000       0.22790000
    52  H          0.81100000       0.11440000       0.77210000
    53  C          0.14834000       0.94832000       0.80998000
    54  C          0.85166000       0.05168000       0.19002000
    55  H          0.11900000       0.95800000       0.72350000
    56  H          0.88100000       0.04200000       0.27650000
    57  C          0.09054000       0.67952000      -0.00032000
    58  C          0.90946000       0.32048000       0.00032000
    59  H          0.01150000       0.69550000       0.06000000
    60  H         -0.01150000       0.30450000       0.94000000
    61  H          0.20250000       0.63690000       0.03780000
    62  H          0.79750000       0.36310000       0.96220000
    63  H          0.02230000       0.61850000       0.92320000
    64  H         -0.02230000       0.38150000       0.07680000
