data_RUQPIC01
_symmetry_space_group_name_H-M    'P1'
_symmetry_Int_Tables_number       1
loop_
_symmetry_equiv_pos_site_id
_symmetry_equiv_pos_as_xyz
1 x,y,z
_cell_length_a                   4.3931
_cell_length_b                   16.6042
_cell_length_c                   6.6521
_cell_angle_alpha                90.0
_cell_angle_beta                 103.511
_cell_angle_gamma                90.0
loop_
_atom_site_label
_atom_site_type_symbol
_atom_site_fract_x
_atom_site_fract_y
_atom_site_fract_z
     1  I          0.86364130       0.45613300       0.82603900
     2  I          0.13635870       0.95613300       0.17396100
     3  I          0.13635870       0.54386700       0.17396100
     4  I          0.86364130       0.04386700       0.82603900
     5  S          0.35617000       0.25000000       0.08144000
     6  S          0.64383000       0.75000000       0.91856000
     7  S          0.47125000       0.34139140       0.48583000
     8  S          0.52875000       0.84139140       0.51417000
     9  S          0.52875000       0.65860860       0.51417000
    10  S          0.47125000       0.15860860       0.48583000
    11  C          0.65662500       0.25000000       0.59941600
    12  C          0.34337500       0.75000000       0.40058400
    13  H          0.87682500       0.25000000       0.58671600
    14  H          0.12317500       0.75000000       0.41328400
    15  H          0.65942500       0.25000000       0.74871600
    16  H          0.34057500       0.75000000       0.25128400
    17  C          0.55591900       0.33345000       0.23351200
    18  C          0.44408100       0.83345000       0.76648800
    19  C          0.44408100       0.66655000       0.76648800
    20  C          0.55591900       0.16655000       0.23351200
    21  H          0.78441900       0.32675000       0.25081200
    22  H          0.21558100       0.82675000       0.74918800
    23  H          0.21558100       0.67325000       0.74918800
    24  H          0.78441900       0.17325000       0.25081200
    25  H          0.49401900       0.38425000       0.15691200
    26  H          0.50598100       0.88425000       0.84308800
    27  H          0.50598100       0.61575000       0.84308800
    28  H          0.49401900       0.11575000       0.15691200
