data_RURROM01
_symmetry_space_group_name_H-M    'P1'
_symmetry_Int_Tables_number       1
loop_
_symmetry_equiv_pos_site_id
_symmetry_equiv_pos_as_xyz
1 x,y,z
_cell_length_a                   4.081219
_cell_length_b                   8.9384
_cell_length_c                   11.5814
_cell_angle_alpha                73.073
_cell_angle_beta                 78.913
_cell_angle_gamma                79.573
loop_
_atom_site_label
_atom_site_type_symbol
_atom_site_fract_x
_atom_site_fract_y
_atom_site_fract_z
     1  F          0.77325000       0.20082000       0.58263140
     2  F          0.22675000       0.79918000       0.41736860
     3  O          0.71596000       0.27382000       0.34162190
     4  O          0.28404000       0.72618000       0.65837810
     5  O          0.44536000       0.06412000       0.26494170
     6  O          0.55464000       0.93588000       0.73505830
     7  C          0.63977000       0.10653000       0.53822000
     8  C          0.36023000       0.89347000       0.46178000
     9  C          0.61256000       0.14343000       0.41932000
    10  C          0.38744000       0.85657000       0.58068000
    11  C          0.46946000       0.03443000       0.37352000
    12  C          0.53054000       0.96557000       0.62648000
    13  H          0.65390000       0.29240000       0.26130000
    14  H          0.34610000       0.70760000       0.73870000
    15  N          0.57396000       0.40752000       0.11534180
    16  N          0.42604000       0.59248000       0.88465820
    17  C          0.34547000       0.53693000       0.10482000
    18  C          0.65453000       0.46307000       0.89518000
    19  C          0.26667000       0.63133000      -0.01272000
    20  C          0.73333000       0.36867000       0.01272000
    21  C          0.02197000       0.76723000       0.98078000
    22  C         -0.02197000       0.23277000       0.01922000
    23  C          0.86522000       0.80633000       0.08392000
    24  C          0.13478000       0.19367000       0.91608000
    25  C          0.94232000       0.71364000       0.19932000
    26  C          0.05768000       0.28636000       0.80068000
    27  C          0.17218000       0.58234000       0.21082000
    28  C          0.82782000       0.41766000       0.78918000
    29  H          0.96780000       0.82990000       0.90360000
    30  H          0.03220000       0.17010000       0.09640000
    31  H          0.70250000       0.89770000       0.07860000
    32  H          0.29750000       0.10230000       0.92140000
    33  H          0.83020000       0.74370000       0.27050000
    34  H          0.16980000       0.25630000       0.72950000
    35  H          0.21760000       0.52020000       0.28930000
    36  H          0.78240000       0.47980000       0.71070000
