data_RUVGIB
_symmetry_space_group_name_H-M    'P1'
_symmetry_Int_Tables_number       1
loop_
_symmetry_equiv_pos_site_id
_symmetry_equiv_pos_as_xyz
1 x,y,z
_cell_length_a                   7.85594
_cell_length_b                   10.45407
_cell_length_c                   11.81867
_cell_angle_alpha                71.3472
_cell_angle_beta                 87.1372
_cell_angle_gamma                81.9322
loop_
_atom_site_label
_atom_site_type_symbol
_atom_site_fract_x
_atom_site_fract_y
_atom_site_fract_z
     1  F          0.50642000       0.30066120       0.95585120
     2  F          0.49358000       0.69933880       0.04414880
     3  F          0.89777830       0.46970120       0.40931140
     4  F          0.10222170       0.53029880       0.59068860
     5  F          0.08625140       0.02646110       0.65241900
     6  F          0.91374860       0.97353890       0.34758100
     7  F          0.89696850       0.26435140       0.62004120
     8  F          0.10303150       0.73564860       0.37995880
     9  F          0.09706170       0.42517120       0.22491120
    10  F          0.90293830       0.57482880       0.77508880
    11  F          0.29312140       0.18542110       0.25510900
    12  F          0.70687860       0.81457890       0.74489100
    13  C          0.44058190       0.64173160       0.66009140
    14  C          0.55941810       0.35826840       0.33990860
    15  N          0.31893160       0.86901130       0.55964120
    16  N          0.68106840       0.13098870       0.44035880
    17  N          0.30387180       0.97769140       0.45774120
    18  N          0.69612820       0.02230860       0.54225880
    19  H          0.36090000       0.97160000       0.39330000
    20  H          0.63910000       0.02840000       0.60670000
    21  C          0.48453000       0.41308170       0.85738170
    22  C          0.51547000       0.58691830       0.14261830
    23  C          0.37603000       0.52484180       0.86623170
    24  C          0.62397000       0.47515820       0.13376830
    25  H          0.31720000       0.52320000       0.93880000
    26  H          0.68280000       0.47680000       0.06120000
    27  C          0.35512000       0.63942160       0.76679150
    28  C          0.64488000       0.36057840       0.23320850
    29  H          0.28120000       0.71790000       0.77120000
    30  H          0.71880000       0.28210000       0.22880000
    31  C          0.41902000       0.76276160       0.55524140
    32  C          0.58098000       0.23723840       0.44475860
    33  H          0.47920000       0.76290000       0.48350000
    34  H          0.52080000       0.23710000       0.51650000
    35  C          0.20112190       0.09649160       0.45409140
    36  C          0.79887810       0.90350840       0.54590860
    37  C          0.19562000       0.20397170       0.34700150
    38  C          0.80438000       0.79602830       0.65299850
    39  C          0.09602000       0.32740170       0.33105170
    40  C          0.90398000       0.67259830       0.66894830
    41  C         -0.00412000       0.34973180       0.42313190
    42  C          0.00412000       0.65026820       0.57686810
    43  C          0.57023000       0.41011180       0.75456190
    44  C          0.42977000       0.58988820       0.24543810
    45  H          0.64310000       0.33080000       0.75130000
    46  H          0.35690000       0.66920000       0.24870000
    47  C          0.54832000       0.52569180       0.65496170
    48  C          0.45168000       0.47430820       0.34503830
    49  H          0.60710000       0.52570000       0.58270000
    50  H          0.39290000       0.47430000       0.41730000
    51  C          0.09682000       0.12158170       0.54579150
    52  C          0.90318000       0.87841830       0.45420850
    53  C         -0.00292000       0.24573190       0.52989180
    54  C          0.00292000       0.75426810       0.47010820
    55  F          0.95173810       0.22842160       0.10482140
    56  F          0.04826190       0.77157840       0.89517860
    57  C          0.06102000       0.17732000       0.03283180
    58  C          0.93898000       0.82268000       0.96716820
    59  C          0.07953000       0.25712000       0.91682000
    60  C          0.92047000       0.74288000       0.08318000
    61  H          0.01700000       0.34570000       0.88770000
    62  H          0.98300000       0.65430000       0.11230000
    63  C          0.19092000       0.20549180       0.84340160
    64  C          0.80908000       0.79450820       0.15659840
    65  H          0.20680000       0.25880000       0.76280000
    66  H          0.79320000       0.74120000       0.23720000
    67  C          0.28002000       0.07526160       0.88772140
    68  C          0.71998000       0.92473840       0.11227860
    69  C          0.40172000       0.01903190       0.81295150
    70  C          0.59828000       0.98096810       0.18704850
    71  H          0.44720000       0.92550000       0.84340000
    72  H          0.55280000       0.07450000       0.15660000
    73  O          0.44844190       0.08335150       0.71507120
    74  O          0.55155810       0.91664850       0.28492880
    75  C          0.25492000      -0.00219830       0.00567140
    76  C          0.74508000       0.00219830      -0.00567140
    77  H          0.31440000       0.90820000       0.03550000
    78  H          0.68560000       0.09180000       0.96450000
    79  C          0.14532000       0.04922000       0.07985160
    80  C          0.85468000       0.95078000       0.92014840
    81  H          0.12900000      -0.00290000       0.16080000
    82  H          0.87100000       0.00290000       0.83920000
