data_RUVLIG
_symmetry_space_group_name_H-M    'P1'
_symmetry_Int_Tables_number       1
loop_
_symmetry_equiv_pos_site_id
_symmetry_equiv_pos_as_xyz
1 x,y,z
_cell_length_a                   13.209614
_cell_length_b                   4.97655
_cell_length_c                   13.567314
_cell_angle_alpha                90.0
_cell_angle_beta                 98.6032
_cell_angle_gamma                90.0
loop_
_atom_site_label
_atom_site_type_symbol
_atom_site_fract_x
_atom_site_fract_y
_atom_site_fract_z
     1  Cl         0.58724400       0.10526900       0.74117400
     2  Cl         0.41275600       0.60526900       0.75882600
     3  Cl         0.41275600       0.89473100       0.25882600
     4  Cl         0.58724400       0.39473100       0.24117400
     5  N          0.74496900       0.75493000       0.60431900
     6  N          0.25503100       0.25493000       0.89568100
     7  N          0.25503100       0.24507000       0.39568100
     8  N          0.74496900       0.74507000       0.10431900
     9  N          0.60385100       0.45443000       0.60332100
    10  N          0.39614900       0.95443000       0.89667900
    11  N          0.39614900       0.54557000       0.39667900
    12  N          0.60385100       0.04557000       0.10332100
    13  C          0.74276130       0.44703000       0.73964120
    14  C          0.25723870       0.94703000       0.76035880
    15  C          0.25723870       0.55297000       0.26035880
    16  C          0.74276130       0.05297000       0.23964120
    17  H          0.77151300       0.37401700       0.80054400
    18  H          0.22848700       0.87401700       0.69945600
    19  H          0.22848700       0.62598300       0.19945600
    20  H          0.77151300       0.12598300       0.30054400
    21  C          0.65260110       0.65483000       0.56340110
    22  C          0.34739890       0.15483000       0.93659890
    23  C          0.34739890       0.34517000       0.43659890
    24  C          0.65260110       0.84517000       0.06340110
    25  N          0.88038110       0.75853000       0.73071110
    26  N          0.11961890       0.25853000       0.76928890
    27  N          0.11961890       0.24147000       0.26928890
    28  N          0.88038110       0.74147000       0.23071110
    29  H          0.90687800       0.88445300       0.69944900
    30  H          0.09312200       0.38445300       0.80055100
    31  H          0.09312200       0.11554700       0.30055100
    32  H          0.90687800       0.61554700       0.19944900
    33  H          0.91206600       0.70041600       0.78664600
    34  H          0.08793400       0.20041600       0.71335400
    35  H          0.08793400       0.29958400       0.21335400
    36  H          0.91206600       0.79958400       0.28664600
    37  C          0.65147120       0.36143000       0.68959120
    38  C          0.34852880       0.86143000       0.81040880
    39  C          0.34852880       0.63857000       0.31040880
    40  C          0.65147120       0.13857000       0.18959120
    41  C          0.79074110       0.65403000       0.69271110
    42  C          0.20925890       0.15403000       0.80728890
    43  C          0.20925890       0.34597000       0.30728890
    44  C          0.79074110       0.84597000       0.19271110
    45  N          0.60778110       0.76303000       0.47853110
    46  N          0.39221890       0.26303000       0.02146890
    47  N          0.39221890       0.23697000       0.52146890
    48  N          0.60778110       0.73697000       0.97853110
    49  H          0.54916600       0.70458100       0.45063600
    50  H          0.45083400       0.20458100       0.04936400
    51  H          0.45083400       0.29541900       0.54936400
    52  H          0.54916600       0.79541900       0.95063600
    53  H          0.63736200       0.89149200       0.45144400
    54  H          0.36263800       0.39149200       0.04855600
    55  H          0.36263800       0.10850800       0.54855600
    56  H          0.63736200       0.60850800       0.95144400
    57  O          0.81782900       0.14163000       0.50401900
    58  O          0.18217100       0.64163000      -0.00401900
    59  O          0.18217100       0.85837000       0.49598100
    60  O          0.81782900       0.35837000       0.00401900
    61  H          0.80315000       0.01733300       0.53897500
    62  H          0.19685000       0.51733300       0.96102500
    63  H          0.19685000      -0.01733300       0.46102500
    64  H          0.80315000       0.48266700       0.03897500
    65  O          0.96386900       0.12223000       0.60813900
    66  O          0.03613100       0.62223000       0.89186100
    67  O          0.03613100       0.87777000       0.39186100
    68  O          0.96386900       0.37777000       0.10813900
    69  C          0.90949110       0.22373000       0.53630110
    70  C          0.09050890       0.72373000       0.96369890
    71  C          0.09050890       0.77627000       0.46369890
    72  C          0.90949110       0.27627000       0.03630110
    73  C          0.94673110       0.45223000       0.47896120
    74  C          0.05326890       0.95223000       0.02103880
    75  C          0.05326890       0.54777000       0.52103880
    76  C          0.94673110       0.04777000       0.97896120
    77  H          0.89945400       0.60147400       0.47846900
    78  H          0.10054600       0.10147400       0.02153100
    79  H          0.10054600       0.39852600       0.52153100
    80  H          0.89945400       0.89852600       0.97846900
    81  H          0.94639300       0.39588500       0.41045700
    82  H          0.05360700       0.89588500       0.08954300
    83  H          0.05360700       0.60411500       0.58954300
    84  H          0.94639300       0.10411500       0.91045700
