data_RUWFOF
_symmetry_space_group_name_H-M    'P1'
_symmetry_Int_Tables_number       1
loop_
_symmetry_equiv_pos_site_id
_symmetry_equiv_pos_as_xyz
1 x,y,z
_cell_length_a                   6.98561
_cell_length_b                   14.70632
_cell_length_c                   12.78542
_cell_angle_alpha                90.0
_cell_angle_beta                 97.1841
_cell_angle_gamma                90.0
loop_
_atom_site_label
_atom_site_type_symbol
_atom_site_fract_x
_atom_site_fract_y
_atom_site_fract_z
     1  C          0.37458170       0.50582800       0.35427100
     2  C          0.62541830       0.00582800       0.14572900
     3  C          0.62541830       0.49417200       0.64572900
     4  C          0.37458170      -0.00582800       0.85427100
     5  C          0.38752170       0.57989800       0.28745100
     6  C          0.61247830       0.07989800       0.21254900
     7  C          0.61247830       0.42010200       0.71254900
     8  C          0.38752170       0.92010200       0.78745100
     9  C          0.53776170       0.58524800       0.22641900
    10  C          0.46223830       0.08524800       0.27358100
    11  C          0.46223830       0.41475200       0.77358100
    12  C          0.53776170       0.91475200       0.72641900
    13  C          0.67622170       0.51624800       0.23178100
    14  C          0.32377830       0.01624800       0.26821900
    15  C          0.32377830       0.48375200       0.76821900
    16  C          0.67622170       0.98375200       0.73178100
    17  C          0.66408170       0.44238800       0.30012100
    18  C          0.33591830       0.94238800       0.19987900
    19  C          0.33591830       0.55761200       0.69987900
    20  C          0.66408170       0.05761200       0.80012100
    21  C          0.51304180       0.43646800       0.36069100
    22  C          0.48695820       0.93646800       0.13930900
    23  C          0.48695820       0.56353200       0.63930900
    24  C          0.51304180       0.06353200       0.86069100
    25  C          0.21397170       0.50044800       0.41887100
    26  C          0.78602830       0.00044800       0.08112900
    27  C          0.78602830       0.49955200       0.58112900
    28  C          0.21397170      -0.00044800       0.91887100
    29  O          0.55783130       0.65560600       0.15962700
    30  O          0.44216870       0.15560600       0.34037300
    31  O          0.44216870       0.34439400       0.84037300
    32  O          0.55783130       0.84439400       0.65962700
    33  O          0.81994130       0.52238600       0.16917700
    34  O          0.18005870       0.02238600       0.33082300
    35  O          0.18005870       0.47761400       0.83082300
    36  O          0.81994130       0.97761400       0.66917700
    37  O          0.80604130       0.37929600       0.29919700
    38  O          0.19395870       0.87929600       0.20080300
    39  O          0.19395870       0.62070400       0.70080300
    40  O          0.80604130       0.12070400       0.79919700
    41  O          0.10165140       0.57282600       0.41332800
    42  O          0.89834860       0.07282600       0.08667200
    43  O          0.89834860       0.42717400       0.58667200
    44  O          0.10165140       0.92717400       0.91332800
    45  O          0.18764120       0.43438600       0.47441700
    46  O          0.81235880       0.93438600       0.02558300
    47  O          0.81235880       0.56561400       0.52558300
    48  O          0.18764120       0.06561400       0.97441700
    49  H          0.29220000       0.62811000       0.28201200
    50  H          0.70780000       0.12811000       0.21798800
    51  H          0.70780000       0.37189000       0.71798800
    52  H          0.29220000       0.87189000       0.78201200
    53  H          0.44230000       0.68101400       0.14151700
    54  H          0.55770000       0.18101400       0.35848300
    55  H          0.55770000       0.31898600       0.85848300
    56  H          0.44230000       0.81898600       0.64151700
    57  H          0.84330000       0.46901400       0.14551600
    58  H          0.15670000       0.96901400       0.35448400
    59  H          0.15670000       0.53098600       0.85448400
    60  H          0.84330000       0.03098600       0.64551600
    61  H          0.79330000       0.33191300       0.34131500
    62  H          0.20670000       0.83191300       0.15868500
    63  H          0.20670000       0.66808700       0.65868500
    64  H          0.79330000       0.16808700       0.84131500
    65  H          0.50720000       0.38651000       0.40781200
    66  H          0.49280000       0.88651000       0.09218800
    67  H          0.49280000       0.61349000       0.59218800
    68  H          0.50720000       0.11349000       0.90781200
    69  H          0.00130000       0.56591300       0.45511600
    70  H         -0.00130000       0.06591300       0.04488400
    71  H         -0.00130000       0.43408700       0.54488400
    72  H          0.00130000       0.93408700       0.95511600
    73  C          0.12028180       0.81566800       0.52394100
    74  C          0.87971820       0.31566800       0.97605900
    75  C          0.87971820       0.18433200       0.47605900
    76  C          0.12028180       0.68433200       0.02394100
    77  C          0.90868180       0.78671900       0.51551100
    78  C          0.09131820       0.28671900       0.98448900
    79  C          0.09131820       0.21328100       0.48448900
    80  C          0.90868180       0.71328100       0.01551100
    81  C          0.74662000       0.91445900       0.41347110
    82  C          0.25338000       0.41445900       0.08652890
    83  C          0.25338000       0.08554100       0.58652890
    84  C          0.74662000       0.58554100       0.91347110
    85  C          0.86622000       0.78293100       0.31980110
    86  C          0.13378000       0.28293100       0.18019890
    87  C          0.13378000       0.21706900       0.68019890
    88  C          0.86622000       0.71706900       0.81980110
    89  C          0.59000180       0.76713100       0.41674110
    90  C          0.40999820       0.26713100       0.08325890
    91  C          0.40999820       0.23286900       0.58325890
    92  C          0.59000180       0.73286900       0.91674110
    93  N          0.78129140       0.81374700       0.41610800
    94  N          0.21870860       0.31374700       0.08389200
    95  N          0.21870860       0.18625300       0.58389200
    96  N          0.78129140       0.68625300       0.91610800
    97  O          0.17611130       0.87630600       0.46850700
    98  O          0.82388870       0.37630600       0.03149300
    99  O          0.82388870       0.12369400       0.53149300
   100  O          0.17611130       0.62369400       0.96850700
   101  O          0.22577120       0.77200600       0.59542700
   102  O          0.77422880       0.27200600       0.90457300
   103  O          0.77422880       0.22799400       0.40457300
   104  O          0.22577120       0.72799400       0.09542700
   105  H          0.90720000       0.72101100       0.51921100
   106  H          0.09280000       0.22101100       0.98078900
   107  H          0.09280000       0.27898900       0.48078900
   108  H          0.90720000       0.77898900       0.01921100
   109  H          0.85220000       0.81411100       0.57451200
   110  H          0.14780000       0.31411100       0.92548800
   111  H          0.14780000       0.18588900       0.42548800
   112  H          0.85220000       0.68588900       0.07451200
   113  H          0.67720000       0.92971100       0.47481400
   114  H          0.32280000       0.42971100       0.02518600
   115  H          0.32280000       0.07028900       0.52518600
   116  H          0.67720000       0.57028900       0.97481400
   117  H          0.66520000       0.92671100       0.34871400
   118  H          0.33480000       0.42671100       0.15128600
   119  H          0.33480000       0.07328900       0.65128600
   120  H          0.66520000       0.57328900       0.84871400
   121  H          0.87120000       0.94471100       0.41691200
   122  H          0.12880000       0.44471100       0.08308800
   123  H          0.12880000       0.05528900       0.58308800
   124  H          0.87120000       0.55528900       0.91691200
   125  H          0.77720000       0.79541100       0.25851400
   126  H          0.22280000       0.29541100       0.24148600
   127  H          0.22280000       0.20458900       0.74148600
   128  H          0.77720000       0.70458900       0.75851400
   129  H         -0.01380000       0.81621100       0.31551200
   130  H          0.01380000       0.31621100       0.18448800
   131  H          0.01380000       0.18378900       0.68448800
   132  H         -0.01380000       0.68378900       0.81551200
   133  H          0.88620000       0.71771100       0.32731200
   134  H          0.11380000       0.21771100       0.17268800
   135  H          0.11380000       0.28228900       0.67268800
   136  H          0.88620000       0.78228900       0.82731200
   137  H          0.53120000       0.78751100       0.47651300
   138  H          0.46880000       0.28751100       0.02348700
   139  H          0.46880000       0.21248900       0.52348700
   140  H          0.53120000       0.71248900       0.97651300
   141  H          0.50820000       0.78391000       0.35361300
   142  H          0.49180000       0.28391000       0.14638700
   143  H          0.49180000       0.21609000       0.64638700
   144  H          0.50820000       0.71609000       0.85361300
   145  H          0.61320000       0.70141100       0.42011100
   146  H          0.38680000       0.20141100       0.07988900
   147  H          0.38680000       0.29858900       0.57988900
   148  H          0.61320000       0.79858900       0.92011100
