data_RUWVIR
_symmetry_space_group_name_H-M    'P1'
_symmetry_Int_Tables_number       1
loop_
_symmetry_equiv_pos_site_id
_symmetry_equiv_pos_as_xyz
1 x,y,z
_cell_length_a                   12.70175
_cell_length_b                   15.28517
_cell_length_c                   16.61617
_cell_angle_alpha                114.3502
_cell_angle_beta                 111.9302
_cell_angle_gamma                93.4843
loop_
_atom_site_label
_atom_site_type_symbol
_atom_site_fract_x
_atom_site_fract_y
_atom_site_fract_z
     1  I          0.16478400       0.51473400       0.00836300
     2  I          0.83521600       0.48526600      -0.00836300
     3  I          0.87143600       0.74844300       0.73877300
     4  I          0.12856400       0.25155700       0.26122700
     5  F          0.05904000       0.45443000       0.77933000
     6  F          0.94096000       0.54557000       0.22067000
     7  F          0.94336000       0.54113000       0.67623000
     8  F          0.05664000       0.45887000       0.32377000
     9  F          0.97616000       0.80913000       0.96693000
    10  F          0.02384000       0.19087000       0.03307000
    11  F          0.08644000       0.71953000       0.07043000
    12  F          0.91356000       0.28047000       0.92957000
    13  C          0.07636000       0.58435000       0.92765000
    14  C          0.92364000       0.41565000       0.07235000
    15  C          0.04036000       0.54295000       0.82875000
    16  C          0.95964000       0.45705000       0.17125000
    17  C          0.98054000       0.58825000       0.77555000
    18  C          0.01946000       0.41175000       0.22445000
    19  C          0.95784000       0.67845000       0.81925000
    20  C          0.04216000       0.32155000       0.18075000
    21  C         -0.00276000       0.72106000       0.91926000
    22  C          0.00276000       0.27894000       0.08074000
    23  C          0.05206000       0.67336000       0.97225000
    24  C          0.94794000       0.32664000       0.02775000
    25  I          0.24519400       0.64788400       0.72436400
    26  I          0.75480600       0.35211600       0.27563600
    27  I          0.26565400      -0.01010600       0.17029400
    28  I          0.73434600       0.01010600       0.82970600
    29  F          0.17204000       0.85443000       0.78973000
    30  F          0.82796000       0.14557000       0.21027000
    31  F          0.17614000       0.98323000       0.95803000
    32  F          0.82386000       0.01677000       0.04197000
    33  F          0.34644000       0.78863000       0.10503000
    34  F          0.65356000       0.21137000       0.89497000
    35  F          0.33644000       0.65733000       0.93513000
    36  F          0.66356000       0.34267000       0.06487000
    37  C          0.25266000       0.75185000       0.85675000
    38  C          0.74734000       0.24815000       0.14325000
    39  C          0.21336000       0.83686000       0.86716000
    40  C          0.78664000       0.16314000       0.13284000
    41  C          0.21696000       0.90435000       0.95556000
    42  C          0.78304000       0.09565000       0.04444000
    43  C          0.26166000       0.89065000       0.03665000
    44  C          0.73834000       0.10935000       0.96335000
    45  C          0.30346000       0.80696000       0.02815000
    46  C          0.69654000       0.19304000       0.97185000
    47  C          0.29736000       0.73925000       0.94076000
    48  C          0.70264000       0.26075000       0.05924000
    49  I          0.40084400       0.21508300       0.07991300
    50  I          0.59915600       0.78491700       0.92008700
    51  F          0.37124000       0.05783000       0.86883000
    52  F          0.62876000       0.94217000       0.13117000
    53  F          0.55774000       0.10693000       0.19403000
    54  F          0.44226000       0.89307000       0.80597000
    55  C          0.43586000       0.03065000       0.93605000
    56  C          0.56414000       0.96935000       0.06395000
    57  C          0.46136000       0.08845000       0.03285000
    58  C          0.53864000       0.91155000       0.96715000
    59  C          0.52696000       0.05365000       0.09585000
    60  C          0.47304000       0.94635000       0.90415000
    61  S          0.71786150       0.59331130       0.86044130
    62  S          0.28213850       0.40668870       0.13955870
    63  P          0.58896150       0.47786130       0.74898130
    64  P          0.41103850       0.52213870       0.25101870
    65  C          0.50106000       0.42315000       0.78855000
    66  C          0.49894000       0.57685000       0.21145000
    67  C          0.44348000       0.48167000       0.83717000
    68  C          0.55652000       0.51833000       0.16283000
    69  H          0.44512100       0.54656800       0.84378900
    70  H          0.55487900       0.45343200       0.15621100
    71  C          0.38318000       0.44547000       0.87597000
    72  C          0.61682000       0.55453000       0.12403000
    73  H          0.34366300       0.48556500       0.90949900
    74  H          0.65633700       0.51443500       0.09050100
    75  C          0.38047000       0.35116000       0.86576000
    76  C          0.61953000       0.64884000       0.13424000
    77  H          0.34038900       0.32705500       0.89366600
    78  H          0.65961100       0.67294500       0.10633400
    79  C          0.43437000       0.29216000       0.81626000
    80  C          0.56563000       0.70784000       0.18374000
    81  H          0.42908400       0.22622200       0.80727400
    82  H          0.57091600       0.77377800       0.19272600
    83  C          0.49736000       0.32806000       0.77835000
    84  C          0.50264000       0.67194000       0.22165000
    85  H          0.53745200       0.28761500       0.74567400
    86  H          0.46254800       0.71238500       0.25432600
    87  C          0.64076000       0.38055000       0.68005000
    88  C          0.35924000       0.61945000       0.31995000
    89  C          0.75876000       0.37985000       0.71655000
    90  C          0.24124000       0.62015000       0.28345000
    91  H          0.81354000       0.43248000       0.77819400
    92  H          0.18646000       0.56752000       0.22180600
    93  C          0.79697000       0.30306000       0.66366000
    94  C          0.20303000       0.69694000       0.33634000
    95  H          0.87748500       0.30325400       0.68925300
    96  H          0.12251500       0.69674600       0.31074700
    97  C          0.71846000       0.22656000       0.57406000
    98  C          0.28154000       0.77344000       0.42594000
    99  H          0.74478900       0.17380200       0.53807600
   100  H          0.25521100       0.82619800       0.46192400
   101  C          0.59986000       0.22625000       0.53595000
   102  C          0.40014000       0.77375000       0.46405000
   103  H          0.54549200       0.17408000       0.47352100
   104  H          0.45450800       0.82592000       0.52647900
   105  C          0.56266000       0.30225000       0.58965000
   106  C          0.43734000       0.69775000       0.41035000
   107  H          0.48170500       0.30106900       0.56426000
   108  H          0.51829500       0.69893100       0.43574000
   109  C          0.49106000       0.51235000       0.66245000
   110  C          0.50894000       0.48765000       0.33755000
   111  C          0.53396000       0.59145000       0.65265000
   112  C          0.46604000       0.40855000       0.34735000
   113  H          0.61354200       0.62799800       0.69321800
   114  H          0.38645800       0.37200200       0.30678200
   115  C          0.46267000       0.61766000       0.58506000
   116  C          0.53733000       0.38234000       0.41494000
   117  H          0.49289900       0.67249200       0.57993300
   118  H          0.50710100       0.32750800       0.42006700
   119  C          0.34627000       0.56356000       0.52416000
   120  C          0.65373000       0.43644000       0.47584000
   121  H          0.29699300       0.58040800       0.47650600
   122  H          0.70300700       0.41959200       0.52349400
   123  C          0.30307000       0.48496000       0.53365000
   124  C          0.69693000       0.51504000       0.46635000
   125  H          0.22320000       0.44846000       0.49303400
   126  H          0.77680000       0.55154000       0.50696600
   127  C          0.37426000       0.45876000       0.60145000
   128  C          0.62574000       0.54124000       0.39855000
   129  H          0.34362900       0.40395600       0.60652100
   130  H          0.65637100       0.59604400       0.39347900
   131  S          0.27672150       0.14281130       0.38187130
   132  S          0.72327850       0.85718870       0.61812870
   133  P          0.17761150       0.08447130       0.42386130
   134  P          0.82238850       0.91552870       0.57613870
   135  C          0.06606000       0.97295000       0.32365000
   136  C          0.93394000       0.02705000       0.67635000
   137  C          0.01106000       0.96905000       0.23255000
   138  C         -0.01106000       0.03095000       0.76745000
   139  H          0.03309400       0.02395600       0.22379600
   140  H          0.96690600       0.97604400       0.77620400
   141  C          0.92434000       0.88634000       0.15406000
   142  C          0.07566000       0.11366000       0.84594000
   143  H          0.88677100       0.88483000       0.09188300
   144  H          0.11322900       0.11517000       0.90811700
   145  C          0.89194000       0.80495000       0.16595000
   146  C          0.10806000       0.19505000       0.83405000
   147  H          0.83419600       0.74716200       0.11171600
   148  H          0.16580400       0.25283800       0.88828400
   149  C          0.94514000       0.80974000       0.25726000
   150  C          0.05486000       0.19026000       0.74274000
   151  H          0.92136600       0.75578800       0.26618400
   152  H          0.07863400       0.24421200       0.73381600
   153  C          0.03276000       0.89205000       0.33595000
   154  C          0.96724000       0.10795000       0.66405000
   155  H          0.06993300       0.89360900       0.39798600
   156  H          0.93006700       0.10639100       0.60201400
   157  C          0.26446000       0.05665000       0.52135000
   158  C          0.73554000       0.94335000       0.47865000
   159  C          0.21536000       0.04005000       0.57815000
   160  C          0.78464000       0.95995000       0.42185000
   161  H          0.13657500       0.04284900       0.56534300
   162  H          0.86342500       0.95715100       0.43465700
   163  C          0.28106000       0.01946000       0.65255000
   164  C          0.71894000       0.98054000       0.34745000
   165  H          0.24749200       0.00615100       0.69000300
   166  H          0.75250800      -0.00615100       0.30999700
   167  C          0.39777000       0.01855000       0.67165000
   168  C          0.60223000       0.98145000       0.32835000
   169  H          0.44342500       0.00416500       0.72252200
   170  H          0.55657500      -0.00416500       0.27747800
   171  C          0.44776000       0.03785000       0.61865000
   172  C          0.55224000       0.96215000       0.38135000
   173  H          0.52752600       0.03799900       0.63325700
   174  H          0.47247400       0.96200100       0.36674300
   175  C          0.38026000       0.05725000       0.54305000
   176  C          0.61974000       0.94275000       0.45695000
   177  H          0.41424400       0.07091300       0.50606100
   178  H          0.58575600       0.92908700       0.49393900
   179  C          0.10146000       0.17125000       0.47535000
   180  C          0.89854000       0.82875000       0.52465000
   181  C         -0.01636000       0.16286000       0.42075000
   182  C          0.01636000       0.83714000       0.57925000
   183  H          0.94015600       0.10715000       0.35766900
   184  H          0.05984400       0.89285000       0.64233100
   185  C          0.93023000       0.23506000       0.45796000
   186  C          0.06977000       0.76494000       0.54204000
   187  H          0.84985700       0.22886300       0.42089800
   188  H          0.15014300       0.77113700       0.57910200
   189  C         -0.00567000       0.31636000       0.54966000
   190  C          0.00567000       0.68364000       0.45034000
   191  H          0.95815000       0.36672500       0.57483800
   192  H          0.04185000       0.63327500       0.42516200
   193  C          0.11086000       0.32466000       0.60435000
   194  C          0.88914000       0.67534000       0.39565000
   195  H          0.15423800       0.38058000       0.66721200
   196  H          0.84576200       0.61942000       0.33278800
   197  C          0.16386000       0.25225000       0.56815000
   198  C          0.83614000       0.74775000       0.43185000
   199  H          0.24336800       0.25753700       0.60661800
   200  H          0.75663200       0.74246300       0.39338200
