data_RUXMED
_symmetry_space_group_name_H-M    'P1'
_symmetry_Int_Tables_number       1
loop_
_symmetry_equiv_pos_site_id
_symmetry_equiv_pos_as_xyz
1 x,y,z
_cell_length_a                   6.3423
_cell_length_b                   7.2703
_cell_length_c                   9.8644
_cell_angle_alpha                105.4675
_cell_angle_beta                 100.3545
_cell_angle_gamma                91.6685
loop_
_atom_site_label
_atom_site_type_symbol
_atom_site_fract_x
_atom_site_fract_y
_atom_site_fract_z
     1  N          0.44733000       0.30833000       0.07295190
     2  N          0.55267000       0.69167000       0.92704810
     3  C          0.64104000       0.24363000       0.07762000
     4  C          0.35896000       0.75637000       0.92238000
     5  H          0.66750000       0.15390000      -0.00600000
     6  H          0.33250000       0.84610000       0.00600000
     7  C          0.80683000       0.29733000       0.19532000
     8  C          0.19317000       0.70267000       0.80468000
     9  H          0.94290000       0.24690000       0.19190000
    10  H          0.05710000       0.75310000       0.80810000
    11  C          0.77023000       0.42643000       0.31818190
    12  C          0.22977000       0.57357000       0.68181810
    13  C          0.57043000       0.49713000       0.31502000
    14  C          0.42957000       0.50287000       0.68498000
    15  H          0.53940000       0.58760000       0.39670000
    16  H          0.46060000       0.41240000       0.60330000
    17  C          0.41673000       0.43433000       0.19143000
    18  C          0.58327000       0.56567000       0.80857000
    19  H          0.27990000       0.48430000       0.19070000
    20  H          0.72010000       0.51570000       0.80930000
    21  C          0.93343000       0.48063000       0.44629190
    22  C          0.06657000       0.51937000       0.55370810
    23  C          0.30473000       0.94992000       0.52932180
    24  C          0.69527000       0.05008000       0.47067820
    25  H          0.17080000       0.91570000       0.55010000
    26  H          0.82920000       0.08430000       0.44990000
    27  C          0.32033000       0.94262000       0.38930170
    28  C          0.67967000       0.05738000       0.61069830
    29  C          0.51673000      -0.00657000       0.36164180
    30  C          0.48327000       0.00657000       0.63835820
    31  H          0.52910000      -0.01090000       0.26630000
    32  H          0.47090000       0.01090000       0.73370000
    33  C          0.13463000       0.87853000       0.27542180
    34  C          0.86537000       0.12147000       0.72457820
    35  C         -0.01803000       0.82283000       0.18362000
    36  C          0.01803000       0.17717000       0.81638000
    37  H          0.85890000       0.77790000       0.10960000
    38  H          0.14110000       0.22210000       0.89040000
