data_RUXPAC
_symmetry_space_group_name_H-M    'P1'
_symmetry_Int_Tables_number       1
loop_
_symmetry_equiv_pos_site_id
_symmetry_equiv_pos_as_xyz
1 x,y,z
_cell_length_a                   6.36514
_cell_length_b                   27.400317
_cell_length_c                   9.84476
_cell_angle_alpha                90.0
_cell_angle_beta                 108.80001
_cell_angle_gamma                90.0
loop_
_atom_site_label
_atom_site_type_symbol
_atom_site_fract_x
_atom_site_fract_y
_atom_site_fract_z
     1  S          0.19142800       0.62618200      -0.01121500
     2  S          0.80857200       0.12618200       0.51121500
     3  S          0.80857200       0.37381800       0.01121500
     4  S          0.19142800       0.87381800       0.48878500
     5  N          0.87588000       0.51460600       0.35463160
     6  N          0.12412000       0.01460600       0.14536840
     7  N          0.12412000       0.48539400       0.64536840
     8  N          0.87588000       0.98539400       0.85463160
     9  N          0.01643000       0.59114600       0.18200180
    10  N         -0.01643000       0.09114600       0.31799820
    11  N         -0.01643000       0.40885400       0.81799820
    12  N          0.01643000       0.90885400       0.68200180
    13  N          0.34283000       0.63504600       0.26898160
    14  N          0.65717000       0.13504600       0.23101840
    15  N          0.65717000       0.36495400       0.73101840
    16  N          0.34283000       0.86495400       0.76898160
    17  C          0.76917000       0.50509800       0.46382000
    18  C          0.23083000       0.00509800       0.03618000
    19  C          0.23083000       0.49490200       0.53618000
    20  C          0.76917000       0.99490200       0.96382000
    21  C          0.92467000       0.51610800       0.61262000
    22  C          0.07533000       0.01610800       0.88738000
    23  C          0.07533000       0.48389200       0.38738000
    24  C          0.92467000       0.98389200       0.11262000
    25  C          0.71737000       0.50254800       0.21282000
    26  C          0.28263000       0.00254800       0.28718000
    27  C          0.28263000       0.49745200       0.78718000
    28  C          0.71737000      -0.00254800       0.71282000
    29  C          0.79777000       0.51669800       0.08892000
    30  C          0.20223000       0.01669800       0.41108000
    31  C          0.20223000       0.48330200       0.91108000
    32  C          0.79777000       0.98330200       0.58892000
    33  C          0.82257000       0.57101800       0.07232000
    34  C          0.17743000       0.07101800       0.42768000
    35  C          0.17743000       0.42898200       0.92768000
    36  C          0.82257000       0.92898200       0.57232000
    37  C          0.17853000       0.61656700       0.15612000
    38  C          0.82147000       0.11656700       0.34388000
    39  C          0.82147000       0.38343300       0.84388000
    40  C          0.17853000       0.88343300       0.65612000
    41  C          0.36923000       0.63345700       0.41794190
    42  C          0.63077000       0.13345700       0.08205810
    43  C          0.63077000       0.36654300       0.58205810
    44  C          0.36923000       0.86654300       0.91794190
    45  C          0.58193000       0.62504700       0.51222000
    46  C          0.41807000       0.12504700      -0.01222000
    47  C          0.41807000       0.37495300       0.48778000
    48  C          0.58193000       0.87495300       0.01222000
    49  C          0.62263000       0.62601800       0.65872000
    50  C          0.37737000       0.12601800       0.84128000
    51  C          0.37737000       0.37398200       0.34128000
    52  C          0.62263000       0.87398200       0.15872000
    53  C          0.45053000       0.63480800       0.71302000
    54  C          0.54947000       0.13480800       0.78698000
    55  C          0.54947000       0.36519200       0.28698000
    56  C          0.45053000       0.86519200       0.21302000
    57  C          0.23923000       0.64323700       0.61952000
    58  C          0.76077000       0.14323700       0.88048000
    59  C          0.76077000       0.35676300       0.38048000
    60  C          0.23923000       0.85676300       0.11952000
    61  C          0.19663000       0.64341700       0.47232000
    62  C          0.80337000       0.14341700       0.02768000
    63  C          0.80337000       0.35658300       0.52768000
    64  C          0.19663000       0.85658300       0.97232000
    65  H          0.02630000       0.58708000       0.26320000
    66  H         -0.02630000       0.08708000       0.23680000
    67  H         -0.02630000       0.41292000       0.73680000
    68  H          0.02630000       0.91292000       0.76320000
    69  H          0.45040000       0.64858000       0.24820000
    70  H          0.54960000       0.14858000       0.25180000
    71  H          0.54960000       0.35142000       0.75180000
    72  H          0.45040000       0.85142000       0.74820000
    73  H          0.63870000       0.52638000       0.44220000
    74  H          0.36130000       0.02638000       0.05780000
    75  H          0.36130000       0.47362000       0.55780000
    76  H          0.63870000       0.97362000       0.94220000
    77  H          0.72270000       0.47008000       0.46120000
    78  H          0.27730000       0.97008000       0.03880000
    79  H          0.27730000       0.52992000       0.53880000
    80  H          0.72270000       0.02992000       0.96120000
    81  H          0.84570000       0.50917000       0.67920000
    82  H          0.15430000       0.00917000       0.82080000
    83  H          0.15430000       0.49083000       0.32080000
    84  H          0.84570000       0.99083000       0.17920000
    85  H          0.96870000       0.55148000       0.62320000
    86  H          0.03130000       0.05148000       0.87680000
    87  H          0.03130000       0.44852000       0.37680000
    88  H          0.96870000       0.94852000       0.12320000
    89  H          0.67970000       0.46639000       0.20720000
    90  H          0.32030000       0.96639000       0.29280000
    91  H          0.32030000       0.53361000       0.79280000
    92  H          0.67970000       0.03361000       0.70720000
    93  H          0.57870000       0.52068000       0.20220000
    94  H          0.42130000       0.02068000       0.29780000
    95  H          0.42130000       0.47932000       0.79780000
    96  H          0.57870000       0.97932000       0.70220000
    97  H          0.69070000       0.50478000       0.00120000
    98  H          0.30930000       0.00478000       0.49880000
    99  H          0.30930000       0.49522000      -0.00120000
   100  H          0.69070000      -0.00478000       0.50120000
   101  H          0.94060000       0.49958000       0.09720000
   102  H          0.05940000      -0.00042000       0.40280000
   103  H          0.05940000       0.50042000       0.90280000
   104  H          0.94060000       0.00042000       0.59720000
   105  H          0.69270000       0.58888000       0.08120000
   106  H          0.30730000       0.08888000       0.41880000
   107  H          0.30730000       0.41112000       0.91880000
   108  H          0.69270000       0.91112000       0.58120000
   109  H          0.84570000       0.57928000       0.98180000
   110  H          0.15430000       0.07928000       0.51820000
   111  H          0.15430000       0.42072000       0.01820000
   112  H          0.84570000       0.92072000       0.48180000
   113  H          0.69830000       0.62028000       0.47320000
   114  H          0.30170000       0.12028000       0.02680000
   115  H          0.30170000       0.37972000       0.52680000
   116  H          0.69830000       0.87972000       0.97320000
   117  H          0.76540000       0.62158000       0.72120000
   118  H          0.23460000       0.12158000       0.77880000
   119  H          0.23460000       0.37842000       0.27880000
   120  H          0.76540000       0.87842000       0.22120000
   121  H          0.47540000       0.63588000       0.80620000
   122  H          0.52460000       0.13588000       0.69380000
   123  H          0.52460000       0.36412000       0.19380000
   124  H          0.47540000       0.86412000       0.30620000
   125  H          0.11940000       0.65138000       0.65520000
   126  H          0.88060000       0.15138000       0.84480000
   127  H          0.88060000       0.34862000       0.34480000
   128  H          0.11940000       0.84862000       0.15520000
   129  H          0.05330000       0.65147000       0.41020000
   130  H          0.94670000       0.15147000       0.08980000
   131  H          0.94670000       0.34853000       0.58980000
   132  H          0.05330000       0.84853000       0.91020000
   133  C          0.76917000      -0.00508200       0.96378000
   134  S          0.27852800       0.29835219       0.90440600
   135  S          0.72147200       0.79835219       0.59559400
   136  S          0.72147200       0.70164781       0.09559400
   137  S          0.27852800       0.20164781       0.40440600
   138  O          0.30052000       0.30789600       0.75885150
   139  O          0.69948000       0.80789600       0.74114850
   140  O          0.69948000       0.69210400       0.24114850
   141  O          0.30052000       0.19210400       0.25885150
   142  C          0.49424000       0.25674100      -0.00677000
   143  C          0.50576000       0.75674100       0.50677000
   144  C          0.50576000       0.74325900       0.00677000
   145  C          0.49424000       0.24325900       0.49323000
   146  C          0.05185000       0.25669110       0.87264000
   147  C          0.94815000       0.75669110       0.62736000
   148  C          0.94815000       0.74330890       0.12736000
   149  C          0.05185000       0.24330890       0.37264000
   150  H          0.62740000       0.27391000       0.01830000
   151  H          0.37260000       0.77391000       0.48170000
   152  H          0.37260000       0.72609000       0.98170000
   153  H          0.62740000       0.22609000       0.51830000
   154  H          0.47050000       0.24671100       0.07930000
   155  H          0.52950000       0.74671100       0.42070000
   156  H          0.52950000       0.75328900       0.92070000
   157  H          0.47050000       0.25328900       0.57930000
   158  H          0.49140000       0.23111100       0.92830000
   159  H          0.50860000       0.73111100       0.57170000
   160  H          0.50860000       0.76888900       0.07170000
   161  H          0.49140000       0.26888900       0.42830000
   162  H          0.08040000       0.22991100       0.81630000
   163  H          0.91960000       0.72991100       0.68370000
   164  H          0.91960000       0.77008900       0.18370000
   165  H          0.08040000       0.27008900       0.31630000
   166  H          0.92050000       0.27221100       0.81830000
   167  H          0.07950000       0.77221100       0.68170000
   168  H          0.07950000       0.72778900       0.18170000
   169  H          0.92050000       0.22778900       0.31830000
   170  H          0.05140000       0.24481100       0.96530000
   171  H          0.94860000       0.74481100       0.53470000
   172  H          0.94860000       0.75518900       0.03470000
   173  H          0.05140000       0.25518900       0.46530000
