data_RUYJEB
_symmetry_space_group_name_H-M    'P1'
_symmetry_Int_Tables_number       1
loop_
_symmetry_equiv_pos_site_id
_symmetry_equiv_pos_as_xyz
1 x,y,z
_cell_length_a                   5.929411
_cell_length_b                   14.0033
_cell_length_c                   15.7163
_cell_angle_alpha                78.9394
_cell_angle_beta                 89.8314
_cell_angle_gamma                85.4194
loop_
_atom_site_label
_atom_site_type_symbol
_atom_site_fract_x
_atom_site_fract_y
_atom_site_fract_z
     1  C          0.73139000       0.71054000       0.75773000
     2  C          0.26861000       0.28946000       0.24227000
     3  C          0.55269000       0.67914000       0.80914000
     4  C          0.44731000       0.32086000       0.19086000
     5  C          0.55059000       0.58364000       0.85144000
     6  C          0.44941000       0.41636000       0.14856000
     7  C          0.72389000       0.51254000       0.84574000
     8  C          0.27611000       0.48746000       0.15426000
     9  C          0.90691000       0.54604000       0.79384000
    10  C          0.09309000       0.45396000       0.20616000
    11  C          0.90939000       0.64184000       0.75234000
    12  C          0.09061000       0.35816000       0.24766000
    13  F          0.37535000       0.74212000       0.81972000
    14  F          0.62465000       0.25788000       0.18028000
    15  F          0.37115000       0.55722000       0.90242000
    16  F          0.62885000       0.44278000       0.09758000
    17  F          0.08095000       0.48202000       0.78332000
    18  F          0.91905000       0.51798000       0.21668000
    19  F          0.08925000       0.66702000       0.70242000
    20  F          0.91075000       0.33298000       0.29758000
    21  I          0.73463700       0.85477300       0.68975300
    22  I          0.26536300       0.14522700       0.31024700
    23  O          0.72927000       0.41953000       0.88293000
    24  O          0.27073000       0.58047000       0.11707000
    25  H          0.60211000       0.40240000       0.91040000
    26  H          0.39789000       0.59760000       0.08960000
    27  C          0.51869000       0.76976000       0.02664000
    28  C          0.48131000       0.23024000       0.97336000
    29  H          0.37320000       0.78790000       0.04670000
    30  H          0.62680000       0.21210000       0.95330000
    31  C          0.64191000       0.84286000       0.98314000
    32  C          0.35809000       0.15714000       0.01686000
    33  H          0.58140000       0.90910000       0.97350000
    34  H          0.41860000       0.09090000       0.02650000
    35  C          0.85761000       0.81856000       0.95354000
    36  C          0.14239000       0.18144000       0.04646000
    37  C          0.93179000       0.71956000       0.97054000
    38  C          0.06821000       0.28044000       0.02946000
    39  H          0.07640000       0.69910000       0.95120000
    40  H          0.92360000       0.30090000       0.04880000
    41  C          0.79799000       0.65126000       0.01514000
    42  C          0.20201000       0.34874000       0.98486000
    43  H          0.85530000       0.58470000       0.02700000
    44  H          0.14470000       0.41530000       0.97300000
    45  C          0.00421000       0.89056000       0.90644000
    46  C         -0.00421000       0.10944000       0.09356000
    47  H          0.14150000       0.86540000       0.88470000
    48  H          0.85850000       0.13460000       0.11530000
    49  C          0.96389000       0.98676000       0.89134000
    50  C          0.03611000       0.01324000       0.10866000
    51  H          0.82720000       0.01220000       0.91320000
    52  H          0.17280000       0.98780000       0.08680000
    53  C          0.11181000       0.05844000       0.84364000
    54  C          0.88819000       0.94156000       0.15636000
    55  C          0.32349000       0.03094000       0.81194000
    56  C          0.67651000       0.96906000       0.18806000
    57  H          0.37640000       0.96390000       0.82060000
    58  H          0.62360000       0.03610000       0.17940000
    59  C          0.45431000       0.10064000       0.76824000
    60  C          0.54569000       0.89936000       0.23176000
    61  H          0.59760000       0.08110000       0.74710000
    62  H          0.40240000       0.91890000       0.25290000
    63  C          0.38109000       0.19824000       0.75464000
    64  C          0.61891000       0.80176000       0.24536000
    65  C          0.17091000       0.22824000       0.78464000
    66  C          0.82909000       0.77176000       0.21536000
    67  H          0.11810000       0.29530000       0.77510000
    68  H          0.88190000       0.70470000       0.22490000
    69  C          0.04081000       0.15674000       0.82874000
    70  C          0.95919000       0.84326000       0.17126000
    71  H          0.89720000       0.17620000       0.84960000
    72  H          0.10280000       0.82380000       0.15040000
    73  C          0.45621000       0.36414000       0.69164000
    74  C          0.54379000       0.63586000       0.30836000
    75  H          0.43390000       0.38840000       0.74640000
    76  H          0.56610000       0.61160000       0.25360000
    77  H          0.31100000       0.37550000       0.65890000
    78  H          0.68900000       0.62450000       0.34110000
    79  C          0.63621000       0.41734000       0.63884000
    80  C          0.36379000       0.58266000       0.36116000
    81  H          0.66210000       0.39010000       0.58560000
    82  H          0.33790000       0.60990000       0.41440000
    83  H          0.77950000       0.40640000       0.67270000
    84  H          0.22050000       0.59360000       0.32730000
    85  C          0.57261000       0.52614000       0.61364000
    86  C          0.42739000       0.47386000       0.38636000
    87  H          0.54480000       0.55330000       0.66670000
    88  H          0.45520000       0.44670000       0.33330000
    89  H          0.43070000       0.53730000       0.57880000
    90  H          0.56930000       0.46270000       0.42120000
    91  C          0.75961100       0.57994000       0.56074000
    92  C          0.24038900       0.42006000       0.43926000
    93  H          0.90030000       0.56920000       0.59500000
    94  H          0.09970000       0.43080000       0.40500000
    95  H          0.71350000       0.64990000       0.54640000
    96  H          0.28650000       0.35010000       0.45360000
    97  H          0.78390000       0.55470000       0.50710000
    98  H          0.21610000       0.44530000       0.49290000
    99  N          0.59002000       0.67487000       0.04223000
   100  N          0.40998000       0.32513000       0.95777000
   101  O          0.52746000       0.26173000       0.70983000
   102  O          0.47254000       0.73827000       0.29017000
   103  C          0.62041100       0.11835000       0.53994000
   104  C          0.37958900       0.88165000       0.46006000
   105  H          0.51120000       0.14800000       0.57700000
   106  H          0.48880000       0.85200000       0.42300000
   107  H          0.53510000       0.08850000       0.49910000
   108  H          0.46490000       0.91150000       0.50090000
   109  C          0.76051100       0.19345000       0.49165000
   110  C          0.23948900       0.80655000       0.50835000
   111  H          0.67800000       0.25890000       0.48170000
   112  H          0.32200000       0.74110000       0.51830000
   113  H          0.80710000       0.17760000       0.43500000
   114  H          0.19290000       0.82240000       0.56500000
   115  C          0.96321100       0.18825000       0.55165000
   116  C          0.03678900       0.81175000       0.44835000
   117  H          0.09860000       0.21010000       0.51880000
   118  H          0.90140000       0.78990000       0.48120000
   119  H          0.93150000       0.22840000       0.59630000
   120  H          0.06850000       0.77160000       0.40370000
   121  C         -0.00618900       0.08205000       0.59125000
   122  C          0.00618900       0.91795000       0.40875000
   123  H          0.09910000       0.04710000       0.55640000
   124  H          0.90090000       0.95290000       0.44360000
   125  H          0.05580000       0.07270000       0.65090000
   126  H          0.94420000       0.92730000       0.34910000
   127  O          0.77327000       0.04583000       0.59223000
   128  O          0.22673000       0.95417000       0.40777000
