data_SADGIQ
_symmetry_space_group_name_H-M    'P1'
_symmetry_Int_Tables_number       1
loop_
_symmetry_equiv_pos_site_id
_symmetry_equiv_pos_as_xyz
1 x,y,z
_cell_length_a                   6.59392
_cell_length_b                   21.72902
_cell_length_c                   16.90326
_cell_angle_alpha                90.0
_cell_angle_beta                 97.6443
_cell_angle_gamma                90.0
loop_
_atom_site_label
_atom_site_type_symbol
_atom_site_fract_x
_atom_site_fract_y
_atom_site_fract_z
     1  N          0.19224000       0.26339100       0.45938140
     2  N          0.80776000       0.76339100       0.04061860
     3  N          0.80776000       0.73660900       0.54061860
     4  N          0.19224000       0.23660900       0.95938140
     5  O          0.07043000       0.90360900       0.24774130
     6  O          0.92957000       0.40360900       0.25225870
     7  O          0.92957000       0.09639100       0.75225870
     8  O          0.07043000       0.59639100       0.74774130
     9  O          0.73907000       0.27109800       0.59789130
    10  O          0.26093000       0.77109800       0.90210870
    11  O          0.26093000       0.72890200       0.40210870
    12  O          0.73907000       0.22890200       0.09789130
    13  C         -0.00134000       0.32174110       0.54127160
    14  C          0.00134000       0.82174110       0.95872840
    15  C          0.00134000       0.67825890       0.45872840
    16  C         -0.00134000       0.17825890       0.04127160
    17  C          0.04574000       0.26515120       0.50098160
    18  C          0.95426000       0.76515120      -0.00098160
    19  C          0.95426000       0.73484880       0.49901840
    20  C          0.04574000       0.23484880       0.00098160
    21  H          0.96760000       0.23010000       0.50580000
    22  H          0.03240000       0.73010000      -0.00580000
    23  H          0.03240000       0.76990000       0.49420000
    24  H          0.96760000       0.26990000       0.00580000
    25  C          0.84006000       0.32443120       0.58925160
    26  C          0.15994000       0.82443120       0.91074840
    27  C          0.15994000       0.67556880       0.41074840
    28  C          0.84006000       0.17556880       0.08925160
    29  C          0.68725000       0.78964850       0.29947190
    30  C          0.31275000       0.28964850       0.20052810
    31  C          0.31275000       0.21035150       0.70052810
    32  C          0.68725000       0.71035150       0.79947190
    33  H          0.78350000       0.75720000       0.31740000
    34  H          0.21650000       0.25720000       0.18260000
    35  H          0.21650000       0.24280000       0.68260000
    36  H          0.78350000       0.74280000       0.81740000
    37  H          0.62830000       0.78010000       0.24520000
    38  H          0.37170000       0.28010000       0.25480000
    39  H          0.37170000       0.21990000       0.75480000
    40  H          0.62830000       0.71990000       0.74520000
    41  C          0.80225000       0.84987850       0.29952000
    42  C          0.19775000       0.34987850       0.20048000
    43  C          0.19775000       0.15012150       0.70048000
    44  C          0.80225000       0.65012150       0.79952000
    45  H          0.70670000       0.88300000       0.28360000
    46  H          0.29330000       0.38300000       0.21640000
    47  H          0.29330000       0.11700000       0.71640000
    48  H          0.70670000       0.61700000       0.78360000
    49  H          0.86900000       0.85860000       0.35300000
    50  H          0.13100000       0.35860000       0.14700000
    51  H          0.13100000       0.14140000       0.64700000
    52  H          0.86900000       0.64140000       0.85300000
    53  C          0.48216000       0.21000140       0.64781180
    54  C          0.51784000       0.71000140       0.85218820
    55  C          0.51784000       0.78999860       0.35218820
    56  C          0.48216000       0.28999860       0.14781180
    57  H          0.58570000       0.18010000       0.66790000
    58  H          0.41430000       0.68010000       0.83210000
    59  H          0.41430000       0.81990000       0.33210000
    60  H          0.58570000       0.31990000       0.16790000
    61  H          0.42660000       0.19820000       0.59390000
    62  H          0.57340000       0.69820000       0.90610000
    63  H          0.57340000       0.80180000       0.40610000
    64  H          0.42660000       0.30180000       0.09390000
    65  C          0.95995000       0.84695860       0.24292000
    66  C          0.04005000       0.34695860       0.25708000
    67  C          0.04005000       0.15304140       0.75708000
    68  C          0.95995000       0.65304140       0.74292000
    69  H          0.05300000       0.81300000       0.25720000
    70  H          0.94700000       0.31300000       0.24280000
    71  H          0.94700000       0.18700000       0.74280000
    72  H          0.05300000       0.68700000       0.75720000
    73  H          0.89360000       0.84050000       0.18890000
    74  H          0.10640000       0.34050000       0.31110000
    75  H          0.10640000       0.15950000       0.81110000
    76  H          0.89360000       0.65950000       0.68890000
    77  C          0.32564000       0.96709880       0.20776180
    78  C          0.67436000       0.46709880       0.29223820
    79  C          0.67436000       0.03290120       0.79223820
    80  C          0.32564000       0.53290120       0.70776180
    81  C          0.10725000       0.37526130       0.53064190
    82  C          0.89275000       0.87526130       0.96935810
    83  C          0.89275000       0.62473870       0.46935810
    84  C          0.10725000       0.12473870       0.03064190
    85  H          0.21260000       0.37380000       0.49920000
    86  H          0.78740000       0.87380000       0.00080000
    87  H          0.78740000       0.62620000       0.50080000
    88  H          0.21260000       0.12620000      -0.00080000
    89  C          0.22154000       0.91064870       0.20104160
    90  C          0.77846000       0.41064870       0.29895840
    91  C          0.77846000       0.08935130       0.79895840
    92  C          0.22154000       0.58935130       0.70104160
    93  C          0.90725000       0.43216140       0.61192000
    94  C          0.09275000       0.93216140       0.88808000
    95  C          0.09275000       0.56783860       0.38808000
    96  C          0.90725000       0.06783860       0.11192000
    97  H          0.87680000       0.46910000       0.63550000
    98  H          0.12320000       0.96910000       0.86450000
    99  H          0.12320000       0.53090000       0.36450000
   100  H          0.87680000       0.03090000       0.13550000
   101  C          0.22654000       0.21090130       0.41433170
   102  C          0.77346000       0.71090130       0.08566830
   103  C          0.77346000       0.78909870       0.58566830
   104  C          0.22654000       0.28909870       0.91433170
   105  C          0.06415000       0.43008140       0.56492000
   106  C          0.93585000       0.93008140       0.93508000
   107  C          0.93585000       0.56991860       0.43508000
   108  C          0.06415000       0.06991860       0.06492000
   109  H          0.13890000       0.46530000       0.55680000
   110  H          0.86110000       0.96530000       0.94320000
   111  H          0.86110000       0.53470000       0.44320000
   112  H          0.13890000       0.03470000       0.05680000
   113  C          0.79635000       0.38014140       0.62382000
   114  C          0.20365000       0.88014140       0.87618000
   115  C          0.20365000       0.61985860       0.37618000
   116  C          0.79635000       0.11985860       0.12382000
   117  H          0.69100000       0.38230000       0.65520000
   118  H          0.30900000       0.88230000       0.84480000
   119  H          0.30900000       0.61770000       0.34480000
   120  H          0.69100000       0.11770000       0.15520000
   121  C          0.57715000       0.27270130       0.64688190
   122  C          0.42285000       0.77270130       0.85311810
   123  C          0.42285000       0.72729870       0.35311810
   124  C          0.57715000       0.22729870       0.14688190
   125  H          0.47460000       0.30260000       0.62580000
   126  H          0.52540000       0.80260000       0.87420000
   127  H          0.52540000       0.69740000       0.37420000
   128  H          0.47460000       0.19740000       0.12580000
   129  H          0.63120000       0.28490000       0.70080000
   130  H          0.36880000       0.78490000       0.79920000
   131  H          0.36880000       0.71510000       0.29920000
   132  H          0.63120000       0.21510000       0.20080000
   133  C          0.31755000       0.11243130       0.31871190
   134  C          0.68245000       0.61243130       0.18128810
   135  C          0.68245000       0.88756870       0.68128810
   136  C          0.31755000       0.38756870       0.81871190
   137  C          0.42665000       0.87688860       0.10332000
   138  C          0.57335000       0.37688860       0.39668000
   139  C          0.57335000       0.12311140       0.89668000
   140  C          0.42665000       0.62311140       0.60332000
   141  H          0.46280000       0.84650000       0.06900000
   142  H          0.53720000       0.34650000       0.43100000
   143  H          0.53720000       0.15350000       0.93100000
   144  H          0.46280000       0.65350000       0.56900000
   145  C          0.27455000       0.86603870       0.14868180
   146  C          0.72545000       0.36603870       0.35131820
   147  C          0.72545000       0.13396130       0.85131820
   148  C          0.27455000       0.63396130       0.64868180
   149  H          0.20590000       0.82860000       0.14460000
   150  H          0.79410000       0.32860000       0.35540000
   151  H          0.79410000       0.17140000       0.85540000
   152  H          0.20590000       0.67140000       0.64460000
   153  C          0.42775000       0.19522150       0.40902000
   154  C          0.57225000       0.69522150       0.09098000
   155  C          0.57225000       0.80477850       0.59098000
   156  C          0.42775000       0.30477850       0.90902000
   157  H          0.53380000       0.21740000       0.43760000
   158  H          0.46620000       0.71740000       0.06240000
   159  H          0.46620000       0.78260000       0.56240000
   160  H          0.53380000       0.28260000       0.93760000
   161  C          0.11795000       0.13004160       0.32192000
   162  C          0.88205000       0.63004160       0.17808000
   163  C          0.88205000       0.86995840       0.67808000
   164  C          0.11795000       0.36995840       0.82192000
   165  H          0.01180000       0.10880000       0.29200000
   166  H         -0.01180000       0.60880000       0.20800000
   167  H         -0.01180000       0.89120000       0.70800000
   168  H          0.01180000       0.39120000       0.79200000
   169  C          0.07395000       0.17863160       0.36902000
   170  C          0.92605000       0.67863160       0.13098000
   171  C          0.92605000       0.82136840       0.63098000
   172  C          0.07395000       0.32136840       0.86902000
   173  H          0.93820000       0.18980000       0.37010000
   174  H          0.06180000       0.68980000       0.12990000
   175  H          0.06180000       0.81020000       0.62990000
   176  H          0.93820000       0.31020000       0.87010000
   177  C          0.47125000       0.14660150       0.36112000
   178  C          0.52875000       0.64660150       0.13888000
   179  C          0.52875000       0.85339850       0.63888000
   180  C          0.47125000       0.35339850       0.86112000
   181  H          0.60690000       0.13680000       0.35740000
   182  H          0.39310000       0.63680000       0.14260000
   183  H          0.39310000       0.86320000       0.64260000
   184  H          0.60690000       0.36320000       0.85740000
   185  C          0.47866000       0.97604850       0.16063000
   186  C          0.52134000       0.47604850       0.33937000
   187  C          0.52134000       0.02395150       0.83937000
   188  C          0.47866000       0.52395150       0.66063000
   189  H          0.55100000       0.01290000       0.16480000
   190  H          0.44900000       0.51290000       0.33520000
   191  H          0.44900000       0.98710000       0.83520000
   192  H          0.55100000       0.48710000       0.66480000
   193  C          0.52686000       0.93260840       0.10793000
   194  C          0.47314000       0.43260840       0.39207000
   195  C          0.47314000       0.06739160       0.89207000
   196  C          0.52686000       0.56739160       0.60793000
   197  H          0.62670000       0.94060000       0.07530000
   198  H          0.37330000       0.44060000       0.42470000
   199  H          0.37330000       0.05940000       0.92470000
   200  H          0.62670000       0.55940000       0.57530000
   201  N          0.37684000       0.06478110       0.26930170
   202  N          0.62316000       0.56478110       0.23069830
   203  N          0.62316000       0.93521890       0.73069830
   204  N          0.37684000       0.43521890       0.76930170
   205  C          0.27354000       0.01539130       0.26134190
   206  C          0.72646000       0.51539130       0.23865810
   207  C          0.72646000       0.98460870       0.73865810
   208  C          0.27354000       0.48460870       0.76134190
   209  H          0.16370000       0.01000000       0.28990000
   210  H          0.83630000       0.51000000       0.21010000
   211  H          0.83630000       0.99000000       0.71010000
   212  H          0.16370000       0.49000000       0.78990000
   213  I          0.24830000       0.93466000       0.45954000
   214  I          0.75170000       0.43466000       0.04046000
   215  I          0.75170000       0.06534000       0.54046000
   216  I          0.24830000       0.56534000       0.95954000
   217  I          0.28530000       0.01477000       0.57929000
   218  I          0.71470000       0.51477000       0.92071000
   219  I          0.71470000       0.98523000       0.42071000
   220  I          0.28530000       0.48523000       0.07929000
