data_SADMAP
_symmetry_space_group_name_H-M    'P1'
_symmetry_Int_Tables_number       1
loop_
_symmetry_equiv_pos_site_id
_symmetry_equiv_pos_as_xyz
1 x,y,z
_cell_length_a                   7.24432
_cell_length_b                   10.49493
_cell_length_c                   16.09244
_cell_angle_alpha                86.99901
_cell_angle_beta                 78.06401
_cell_angle_gamma                88.13601
loop_
_atom_site_label
_atom_site_type_symbol
_atom_site_fract_x
_atom_site_fract_y
_atom_site_fract_z
     1  O          0.68638140       0.56129110       0.52289600
     2  O          0.31361860       0.43870890       0.47710400
     3  O          0.87854140       0.35338900       0.42720600
     4  O          0.12145860       0.64661100       0.57279400
     5  C          0.77684160       0.57629130       0.45077700
     6  C          0.22315840       0.42370870       0.54922300
     7  C          0.88038160       0.46275120       0.39880700
     8  C          0.11961840       0.53724880       0.60119300
     9  C          0.97301150       0.51996110       0.31586700
    10  C          0.02698850       0.48003890       0.68413300
    11  C          0.07839160       0.47029120       0.24335700
    12  C          0.92160840       0.52970880       0.75664300
    13  H          0.10490800       0.38123400       0.24007300
    14  H          0.89509200       0.61876600       0.75992700
    15  C          0.14624160       0.55594140       0.17366700
    16  C          0.85375840       0.44405860       0.82633300
    17  H          0.21925300       0.52277500       0.12309900
    18  H          0.78074700       0.47722500       0.87690100
    19  C          0.11059160       0.68523140       0.17630700
    20  C          0.88940840       0.31476860       0.82369300
    21  H          0.16033700       0.73927600       0.12821000
    22  H          0.83966300       0.26072400       0.87179000
    23  C          0.00023150       0.73890120       0.25010700
    24  C         -0.00023150       0.26109880       0.74989300
    25  C          0.94988180       0.86905130       0.26323900
    26  C          0.05011820       0.13094870       0.73676100
    27  H         -0.00439700       0.93176900       0.21975300
    28  H          0.00439700       0.06823100       0.78024700
    29  C          0.83577190       0.90614130       0.33794100
    30  C          0.16422810       0.09385870       0.66205900
    31  H          0.80322200      -0.00597300       0.34426400
    32  H          0.19677800       0.00597300       0.65573600
    33  C          0.76581170       0.81817130       0.40522800
    34  C          0.23418830       0.18182870       0.59477200
    35  H          0.68526500       0.84531300       0.45586400
    36  H          0.31473500       0.15468700       0.54413600
    37  C          0.81748150       0.69184120       0.39548700
    38  C          0.18251850       0.30815880       0.60451300
    39  C          0.93300140       0.65266110       0.31850700
    40  C          0.06699860       0.34733890       0.68149300
    41  N          0.43190110       0.29008800       0.81870500
    42  N          0.56809890       0.70991200       0.18129500
    43  N          0.46306120       0.57475800       0.69395600
    44  N          0.53693880       0.42524200       0.30604400
    45  H          0.51020000       0.61341500       0.64321000
    46  H          0.48980000       0.38658500       0.35679000
    47  N          0.66552120       0.27862900       0.60541500
    48  N          0.33447880       0.72137100       0.39458500
    49  H          0.71320000       0.32131600       0.55401100
    50  H          0.28680000       0.67868400       0.44598900
    51  C          0.49703130       0.44768100       0.71430600
    52  C          0.50296870       0.55231900       0.28569400
    53  C          0.41543130       0.42026900       0.79937600
    54  C          0.58456870       0.57973100       0.20062400
    55  C          0.32362130       0.53335900       0.83481600
    56  C          0.67637870       0.46664100       0.16518400
    57  C          0.21031140       0.56603100       0.91294600
    58  C          0.78968860       0.43396900       0.08705400
    59  H          0.18617400       0.50482800       0.95928200
    60  H          0.81382600       0.49517200       0.04071800
    61  C          0.13411150       0.68863100       0.92162700
    62  C          0.86588850       0.31136900       0.07837300
    63  H          0.05702000       0.71122600       0.97426000
    64  H          0.94298000       0.28877400       0.02574000
    65  C          0.16940160       0.77985100       0.85360800
    66  C          0.83059840       0.22014900       0.14639200
    67  H          0.11534800       0.86321900       0.86101700
    68  H          0.88465200       0.13678100       0.13898300
    69  C          0.28157150       0.75081100       0.77577800
    70  C          0.71842850       0.24918900       0.22422200
    71  H          0.30541200       0.81315200       0.73009700
    72  H          0.69458800       0.18684800       0.26990300
    73  C          0.35808140       0.62793100       0.76649700
    74  C          0.64191860       0.37206900       0.23350300
    75  C          0.56860130       0.33173100       0.67900600
    76  C          0.43139870       0.66826900       0.32099400
    77  C          0.52713130       0.23671900       0.74339600
    78  C          0.47286870       0.76328100       0.25660400
    79  C          0.60250130       0.11817100       0.71021600
    80  C          0.39749870       0.88182900       0.28978400
    81  C          0.61060140      -0.00891100       0.74080700
    82  C          0.38939860       0.00891100       0.25919300
    83  H          0.55200500       0.96753300       0.79771700
    84  H          0.44799500       0.03246700       0.20228300
    85  C          0.70492150       0.89995890       0.68727700
    86  C          0.29507850       0.10004110       0.31272300
    87  H          0.71287400       0.81409100       0.70826800
    88  H          0.28712600       0.18590900       0.29173200
    89  C          0.78860150       0.93273890       0.60268700
    90  C          0.21139850       0.06726110       0.39731300
    91  H          0.85351800       0.86880200       0.56741700
    92  H          0.14648200       0.13119800       0.43258300
    93  C          0.77848140       0.05640110       0.56956700
    94  C          0.22151860       0.94359890       0.43043300
    95  H          0.83192400       0.07742400       0.51162500
    96  H          0.16807600       0.92257600       0.48837500
    97  C          0.68787130       0.14955100       0.62329600
    98  C          0.31212870       0.85044900       0.37670400
    99  C          0.38189130       0.22758900       0.89982600
   100  C          0.61810870       0.77241100       0.10017400
   101  C          0.41912140       0.28325100       0.97125600
   102  C          0.58087860       0.71674900       0.02874400
   103  H          0.47781000       0.36376100       0.96578700
   104  H          0.52219000       0.63623900       0.03421300
   105  C          0.36971150       0.22006120       0.05056600
   106  C          0.63028850       0.77993880       0.94943400
   107  H          0.39384000       0.25787800       0.09949600
   108  H          0.60616000       0.74212200       0.90050400
   109  C          0.28526150       0.10194120       0.05851700
   110  C          0.71473850       0.89805880       0.94148300
   111  H          0.25139700       0.05928400       0.11284100
   112  H          0.74860300       0.94071600       0.88715900
   113  C          0.25046150       0.04643110       0.98755700
   114  C          0.74953850       0.95356890       0.01244300
   115  H          0.19439500       0.96502400      -0.00694400
   116  H          0.80560500       0.03497600       0.00694400
   117  C          0.29719140       0.10926100       0.90799600
   118  C          0.70280860       0.89073900       0.09200400
   119  H          0.27131900       0.07146800       0.85937700
   120  H          0.72868100       0.92853200       0.14062300
