data_SAFVIE
_symmetry_space_group_name_H-M    'P1'
_symmetry_Int_Tables_number       1
loop_
_symmetry_equiv_pos_site_id
_symmetry_equiv_pos_as_xyz
1 x,y,z
_cell_length_a                   10.7491
_cell_length_b                   12.1581
_cell_length_c                   15.9457
_cell_angle_alpha                90.221
_cell_angle_beta                 109.311
_cell_angle_gamma                101.241
loop_
_atom_site_label
_atom_site_type_symbol
_atom_site_fract_x
_atom_site_fract_y
_atom_site_fract_z
     1  O          0.54281000       0.62431000       0.12011000
     2  O          0.45719000       0.37569000       0.87989000
     3  O          0.79411000       0.35411000       0.06951000
     4  O          0.20589000       0.64589000       0.93049000
     5  O          0.22571000       0.32991000       0.09281000
     6  O          0.77429000       0.67009000       0.90719000
     7  O          0.12801000       0.47561000       0.34261000
     8  O          0.87199000       0.52439000       0.65739000
     9  N          0.46642000       0.23951000       0.19461000
    10  N          0.53358000       0.76049000       0.80539000
    11  N          0.54212000       0.61201000       0.31591000
    12  N          0.45788000       0.38799000       0.68409000
    13  C          0.52712000       0.33302000       0.16421000
    14  C          0.47288000       0.66698000       0.83579000
    15  C          0.49632000       0.44032000       0.16101000
    16  C          0.50368000       0.55968000       0.83899000
    17  C          0.57182000       0.51892000       0.12461000
    18  C          0.42818000       0.48108000       0.87539000
    19  C          0.67072000       0.49182000       0.09341000
    20  C          0.32928000       0.50818000       0.90659000
    21  C          0.69892000       0.38522000       0.09911000
    22  C          0.30108000       0.61478000       0.90089000
    23  C          0.62662000       0.30202000       0.13571000
    24  C          0.37338000       0.69798000       0.86429000
    25  C          0.62502000       0.18442000       0.15161000
    26  C          0.37498000       0.81558000       0.84839000
    27  C          0.52362000       0.14912000       0.18621000
    28  C          0.47638000       0.85088000       0.81379000
    29  C          0.42482000       0.53491000       0.27501000
    30  C          0.57518000       0.46509000       0.72499000
    31  C          0.39322000       0.46122000       0.19941000
    32  C          0.60678000       0.53878000       0.80059000
    33  C          0.26242000       0.39752000       0.17091000
    34  C          0.73758000       0.60248000       0.82909000
    35  C          0.17132000       0.40142000       0.21591000
    36  C          0.82868000       0.59858000       0.78409000
    37  C          0.20962000       0.46972000       0.29341000
    38  C          0.79038000       0.53028000       0.70659000
    39  C          0.33932000       0.53872000       0.32511000
    40  C          0.66068000       0.46128000       0.67489000
    41  C          0.41112000       0.61952000       0.39961000
    42  C          0.58888000       0.38048000       0.60039000
    43  C          0.53392000       0.66262000       0.39121000
    44  C          0.46608000       0.33738000       0.60879000
    45  C          0.61832000       0.70832000       0.08392000
    46  C          0.38168000       0.29168000       0.91608000
    47  C          0.84083000       0.42503000       0.01102000
    48  C          0.15917000       0.57497000       0.98898000
    49  C          0.71882000       0.11682000       0.13861000
    50  C          0.28118000       0.88318000       0.86139000
    51  C          0.72723000       0.09562000       0.05582000
    52  C          0.27277000       0.90438000       0.94418000
    53  C          0.81103000       0.02943000       0.04382000
    54  C          0.18897000       0.97057000       0.95618000
    55  C          0.89253000       0.98558000       0.11482000
    56  C          0.10747000       0.01442000       0.88518000
    57  C          0.88833000       0.00753000       0.19802000
    58  C          0.11167000      -0.00753000       0.80198000
    59  C          0.80243000       0.07292000       0.20972000
    60  C          0.19757000       0.92708000       0.79028000
    61  C          0.46432000       0.03882000       0.20931000
    62  C          0.53568000       0.96118000       0.79069000
    63  C          0.38833000       0.03202000       0.26562000
    64  C          0.61167000       0.96798000       0.73438000
    65  C          0.32363000       0.92878000       0.28242000
    66  C          0.67637000       0.07122000       0.71758000
    67  C          0.33503000       0.83048000       0.24532000
    68  C          0.66497000       0.16952000       0.75468000
    69  C          0.41213000       0.83548000       0.19152000
    70  C          0.58787000       0.16452000       0.80848000
    71  C          0.47732000       0.93908000       0.17361000
    72  C          0.52268000       0.06092000       0.82639000
    73  C          0.11833000       0.23582000       0.07632000
    74  C          0.88167000       0.76418000       0.92368000
    75  C         -0.00092000       0.40422000       0.31472000
    76  C          0.00092000       0.59578000       0.68528000
    77  C          0.36672000       0.65552000       0.47251000
    78  C          0.63328000       0.34448000       0.52749000
    79  C          0.37012000       0.76832000       0.48981000
    80  C          0.62988000       0.23168000       0.51019000
    81  C          0.33382000       0.80182000       0.56062000
    82  C          0.66618000       0.19818000       0.43938000
    83  C          0.29422000       0.72402000       0.61382000
    84  C          0.70578000       0.27598000       0.38618000
    85  C          0.29222000       0.61172000       0.59811000
    86  C          0.70778000       0.38828000       0.40189000
    87  C          0.32752000       0.57822000       0.52751000
    88  C          0.67248000       0.42178000       0.47249000
    89  C          0.64552000       0.75072000       0.44721000
    90  C          0.35448000       0.24928000       0.55279000
    91  C          0.70572000       0.83952000       0.40882000
    92  C          0.29428000       0.16048000       0.59118000
    93  C          0.80823000       0.92322000       0.46182000
    94  C          0.19177000       0.07678000       0.53818000
    95  C          0.85193000       0.91973000       0.55342000
    96  C          0.14807000       0.08027000       0.44658000
    97  C          0.79483000       0.83243000       0.59252000
    98  C          0.20517000       0.16757000       0.40748000
    99  C          0.69182000       0.74772000       0.53981000
   100  C          0.30818000       0.25228000       0.46019000
   101  H          0.40020000       0.24330000       0.22380000
   102  H          0.59980000       0.75670000       0.77620000
   103  H          0.61980000       0.63020000       0.29810000
   104  H          0.38020000       0.36980000       0.70190000
   105  H          0.72120000       0.54990000       0.06730000
   106  H          0.27880000       0.45010000       0.93270000
   107  H          0.07750000       0.35630000       0.19340000
   108  H          0.92250000       0.64370000       0.80660000
   109  H          0.58600000       0.77690000       0.08360000
   110  H          0.41400000       0.22310000       0.91640000
   111  H          0.71370000       0.72890000       0.12260000
   112  H          0.28630000       0.27110000       0.87740000
   113  H          0.61270000       0.68620000       0.02710000
   114  H          0.38730000       0.31380000       0.97290000
   115  H          0.90770000       0.39050000      -0.00290000
   116  H          0.09230000       0.60950000       0.00290000
   117  H          0.74920000       0.45040000       0.95710000
   118  H          0.25080000       0.54960000       0.04290000
   119  H          0.88780000       0.49920000       0.04070000
   120  H          0.11220000       0.50080000       0.95930000
   121  H          0.66710000       0.13360000      -0.00050000
   122  H          0.33290000       0.86640000       0.00050000
   123  H          0.81300000       0.02380000       0.97710000
   124  H          0.18700000       0.97620000       0.02290000
   125  H          0.94560000       0.92660000       0.10290000
   126  H          0.05440000       0.07340000       0.89710000
   127  H          0.94680000       0.96390000       0.25290000
   128  H          0.05320000       0.03610000       0.74710000
   129  H          0.79180000       0.07870000       0.26820000
   130  H          0.20820000       0.92130000       0.73180000
   131  H          0.37960000       0.10060000       0.29450000
   132  H          0.62040000       0.89940000       0.70550000
   133  H          0.27610000       0.92750000       0.32980000
   134  H          0.72390000       0.07250000       0.67020000
   135  H          0.28750000       0.75250000       0.24950000
   136  H          0.71250000       0.24750000       0.75050000
   137  H          0.42530000       0.76320000       0.16580000
   138  H          0.57470000       0.23680000       0.83420000
   139  H          0.52740000       0.94070000       0.12930000
   140  H          0.47260000       0.05930000       0.87070000
   141  H          0.12330000       0.19100000       0.02970000
   142  H          0.87670000       0.80900000       0.97030000
   143  H          0.12710000       0.18320000       0.12530000
   144  H          0.87290000       0.81680000       0.87470000
   145  H          0.04120000       0.25710000       0.07670000
   146  H          0.95880000       0.74290000       0.92330000
   147  H          0.95520000       0.41430000       0.35040000
   148  H          0.04480000       0.58570000       0.64960000
   149  H          0.94030000       0.41840000       0.25980000
   150  H          0.05970000       0.58160000       0.74020000
   151  H          0.00080000       0.33490000       0.31330000
   152  H         -0.00080000       0.66510000       0.68670000
   153  H          0.40710000       0.82880000       0.45280000
   154  H          0.59290000       0.17120000       0.54720000
   155  H          0.33330000       0.88900000       0.56710000
   156  H          0.66670000       0.11100000       0.43290000
   157  H          0.27350000       0.74970000       0.66940000
   158  H          0.72650000       0.25030000       0.33060000
   159  H          0.27330000       0.55320000       0.64460000
   160  H          0.72670000       0.44680000       0.35540000
   161  H          0.33220000       0.49390000       0.52140000
   162  H          0.66780000       0.50610000       0.47860000
   163  H          0.66720000       0.83390000       0.33850000
   164  H          0.33280000       0.16610000       0.66150000
   165  H          0.84750000       0.97930000       0.43370000
   166  H          0.15250000       0.02070000       0.56630000
   167  H          0.91680000       0.98210000       0.58680000
   168  H          0.08320000       0.01790000       0.41320000
   169  H          0.83070000       0.82720000       0.66340000
   170  H          0.16930000       0.17280000       0.33660000
   171  H          0.65280000       0.68950000       0.56840000
   172  H          0.34720000       0.31050000       0.43160000
   173  O          0.80692000       0.65962000       0.29291000
   174  O          0.19308000       0.34038000       0.70709000
   175  C          0.92333000       0.68422000       0.33842000
   176  C          0.07667000       0.31578000       0.66158000
   177  C          0.96843000       0.66903000       0.43592000
   178  C          0.03157000       0.33097000       0.56408000
   179  C          0.02753000       0.72674000       0.29904000
   180  C          0.97247000       0.27326000       0.70096000
   181  H          0.03990000       0.62380000       0.45920000
   182  H          0.96010000       0.37620000       0.54080000
   183  H          0.00500000       0.75150000       0.46360000
   184  H         -0.00500000       0.24850000       0.53640000
   185  H          0.88540000       0.66630000       0.45520000
   186  H          0.11460000       0.33370000       0.54480000
   187  H          0.11730000       0.70620000       0.32640000
   188  H          0.88270000       0.29380000       0.67360000
   189  H          0.04870000       0.80060000       0.30530000
   190  H          0.95130000       0.19940000       0.69470000
   191  H         -0.01720000       0.72720000       0.23510000
   192  H          0.01720000       0.27280000       0.76490000
