data_SAHJAP
_symmetry_space_group_name_H-M    'P1'
_symmetry_Int_Tables_number       1
loop_
_symmetry_equiv_pos_site_id
_symmetry_equiv_pos_as_xyz
1 x,y,z
_cell_length_a                   8.01264
_cell_length_b                   13.06436
_cell_length_c                   14.46737
_cell_angle_alpha                108.0374
_cell_angle_beta                 100.2224
_cell_angle_gamma                107.5094
loop_
_atom_site_label
_atom_site_type_symbol
_atom_site_fract_x
_atom_site_fract_y
_atom_site_fract_z
     1  I          0.91245200       0.39947613       0.24756811
     2  I          0.08754800       0.60052387       0.75243189
     3  I          0.52769200       0.81829913       0.71467711
     4  I          0.47230800       0.18170087       0.28532289
     5  F          0.43620190       0.54617120       0.60025100
     6  F          0.56379810       0.45382880       0.39974900
     7  F          0.19902000       0.38657110       0.42329110
     8  F          0.80098000       0.61342890       0.57670890
     9  F          0.22209190       0.82864120       0.54532100
    10  F          0.77790810       0.17135880       0.45467900
    11  F         -0.01253810       0.67020120       0.36772100
    12  F          0.01253810       0.32979880       0.63227900
    13  C          0.34013000       0.69352000       0.57726170
    14  C          0.65987000       0.30648000       0.42273830
    15  C          0.20513000       0.49672000       0.45144180
    16  C          0.79487000       0.50328000       0.54855820
    17  C          0.08823000       0.52392000       0.38889170
    18  C          0.91177000       0.47608000       0.61110830
    19  C          0.22063000       0.72002000       0.51601180
    20  C          0.77937000       0.27998000       0.48398820
    21  C          0.09803000       0.63772000       0.42398180
    22  C          0.90197000       0.36228000       0.57601820
    23  C          0.32773000       0.57872000       0.54307170
    24  C          0.67227000       0.42128000       0.45692830
    25  N          0.35413000       0.78282000       0.94511840
    26  N          0.64587000       0.21718000       0.05488160
    27  C          0.40293000       0.28432000       0.59417170
    28  C          0.59707000       0.71568000       0.40582830
    29  H          0.35450000       0.33590000       0.57610000
    30  H          0.64550000       0.66410000       0.42390000
    31  C          0.00483000       0.28862000       0.93595170
    32  C         -0.00483000       0.71138000       0.06404830
    33  C          0.06463000       0.01002000       0.38308170
    34  C          0.93537000      -0.01002000       0.61691830
    35  H          0.09450000       0.95330000       0.40290000
    36  H          0.90550000       0.04670000       0.59710000
    37  C          0.13843000       0.40182000       0.97362190
    38  C          0.86157000       0.59818000       0.02637810
    39  H          0.12370000       0.45360000       0.94200000
    40  H          0.87630000       0.54640000       0.05800000
    41  C          0.62803000       0.25542000       0.70862170
    42  C          0.37197000       0.74458000       0.29137830
    43  C          0.84463000       0.24362000       0.84682170
    44  C          0.15537000       0.75638000       0.15317830
    45  H          0.77470000       0.16230000       0.82020000
    46  H          0.22530000       0.83770000       0.17980000
    47  N          0.79993000       0.00342180       0.91662160
    48  N          0.20007000      -0.00342180       0.08337840
    49  C          0.87153000       0.03902000       0.24355180
    50  C          0.12847000       0.96098000       0.75644820
    51  H          0.94230000       0.12030000       0.27360000
    52  H          0.05770000       0.87970000       0.72640000
    53  C          0.81083000       0.84702000       0.24232180
    54  C          0.18917000       0.15298000       0.75767820
    55  H          0.84020000       0.79610000       0.27120000
    56  H          0.15980000       0.20390000       0.72880000
    57  C          0.03393000       0.21572000       0.98599170
    58  C          0.96607000       0.78428000       0.01400830
    59  C          0.54533000       0.13562000       0.64809170
    60  C          0.45467000       0.86438000       0.35190830
    61  H          0.59330000       0.08380000       0.66600000
    62  H          0.40670000       0.91620000       0.33400000
    63  C          0.39633000       0.09212000       0.56354170
    64  C          0.60367000       0.90788000       0.43645830
    65  H          0.34360000       0.01080000       0.52390000
    66  H          0.65640000      -0.01080000       0.47610000
    67  C          0.55343000       0.32862000       0.67872170
    68  C          0.44657000       0.67138000       0.32127830
    69  H          0.60750000       0.41010000       0.71740000
    70  H          0.39250000       0.58990000       0.28260000
    71  C          0.90403000       0.09692000       0.94855180
    72  C          0.09597000       0.90308000       0.05144820
    73  C          0.18743000       0.25412000       0.06956180
    74  C          0.81257000       0.74588000       0.93043820
    75  H          0.20290000       0.20360000       0.10250000
    76  H          0.79710000       0.79640000       0.89750000
    77  C          0.78663000       0.30432000       0.79916170
    78  C          0.21337000       0.69568000       0.20083830
    79  H          0.85340000       0.38600000       0.82600000
    80  H          0.14660000       0.61400000       0.17400000
    81  C          0.16393000       0.12182000       0.44361170
    82  C          0.83607000       0.87818000       0.55638830
    83  H          0.12970000       0.17840000       0.42590000
    84  H          0.87030000       0.82160000       0.57410000
    85  C          0.91493000       0.96702000       0.28980170
    86  C          0.08507000       0.03298000       0.71019830
    87  C          0.62423000       0.87462000       0.11073170
    88  C          0.37577000       0.12538000       0.88926830
    89  C          0.32033000       0.16532000       0.53462170
    90  C          0.67967000       0.83468000       0.46537830
    91  C          0.29133000       0.43932000       0.05604190
    92  C          0.70867000       0.56068000       0.94395810
    93  H          0.37990000       0.51630000       0.07990000
    94  H          0.62010000       0.48370000       0.92010000
    95  C          0.66713000       0.80172000       0.15495180
    96  C          0.33287000       0.19828000       0.84504820
    97  H          0.59680000       0.72040000       0.12460000
    98  H          0.40320000       0.27960000       0.87540000
    99  C          0.31663000       0.36602000       0.10412180
   100  C          0.68337000       0.63398000       0.89587820
   101  H          0.42200000       0.39240000       0.16040000
   102  H          0.57800000       0.60760000       0.83960000
   103  C          0.72783000      -0.00528000       0.15523180
   104  C          0.27217000       0.00528000       0.84476820
   105  H          0.69980000       0.04490000       0.12510000
   106  H          0.30020000       0.95510000       0.87490000
   107  C          0.47483000       0.82552000       0.01844180
   108  C          0.52517000       0.17448000       0.98155820
