data_SAPFIB
_symmetry_space_group_name_H-M    'P1'
_symmetry_Int_Tables_number       1
loop_
_symmetry_equiv_pos_site_id
_symmetry_equiv_pos_as_xyz
1 x,y,z
_cell_length_a                   7.51416
_cell_length_b                   10.14231
_cell_length_c                   14.308612
_cell_angle_alpha                69.9268
_cell_angle_beta                 85.0757
_cell_angle_gamma                83.4657
loop_
_atom_site_label
_atom_site_type_symbol
_atom_site_fract_x
_atom_site_fract_y
_atom_site_fract_z
     1  N          0.02220190       0.13739180       0.33713110
     2  N          0.97779810       0.86260820       0.66286890
     3  H          0.97060000       0.15170000       0.28270000
     4  H          0.02940000       0.84830000       0.71730000
     5  H          0.96210000       0.11060000       0.39330000
     6  H          0.03790000       0.88940000       0.60670000
     7  H          0.21330000       0.11230000       0.55511900
     8  H          0.78670000       0.88770000       0.44488100
     9  O          0.17432170       0.09515160       0.50784100
    10  O          0.82567830       0.90484840       0.49215900
    11  C          0.20152000       0.15740190       0.33437120
    12  C          0.79848000       0.84259810       0.66562880
    13  C          0.28142000       0.14152190       0.42407120
    14  C          0.71858000       0.85847810       0.57592880
    15  C          0.30472000       0.20012000       0.24698130
    16  C          0.69528000       0.79988000       0.75301870
    17  H          0.25650000       0.21110000       0.18670000
    18  H          0.74350000       0.78890000       0.81330000
    19  C          0.45502000       0.16892000       0.42370130
    20  C          0.54498000       0.83108000       0.57629870
    21  H          0.50500000       0.15780000       0.48350000
    22  H          0.49500000       0.84220000       0.51650000
    23  C          0.48122000       0.22662000       0.24921130
    24  C          0.51878000       0.77338000       0.75078870
    25  C          0.55772000       0.21312000       0.33523130
    26  C          0.44228000       0.78688000       0.66476870
    27  H          0.67560000       0.23300000       0.33470000
    28  H          0.32440000       0.76700000       0.66530000
    29  N          0.58903000       0.26952000       0.15519130
    30  N          0.41097000       0.73048000       0.84480870
    31  O          0.72892000       0.32130180       0.15268110
    32  O          0.27108000       0.67869820       0.84731890
    33  O          0.53482000       0.24993000       0.08398120
    34  O          0.46518000       0.75007000       0.91601880
    35  N          0.85136190       0.57249170       0.34898100
    36  N          0.14863810       0.42750830       0.65101900
    37  O          0.76323170       0.82275150       0.34684900
    38  O          0.23676830       0.17724850       0.65315100
    39  H          0.76210000       0.73730000       0.36120000
    40  H          0.23790000       0.26270000       0.63880000
    41  C          0.91562000       0.62672000       0.24824120
    42  C          0.08438000       0.37328000       0.75175880
    43  C          0.78872000       0.25482000       0.56300130
    44  C          0.21128000       0.74518000       0.43699870
    45  H          0.84090000       0.18940000       0.53410000
    46  H          0.15910000       0.81060000       0.46590000
    47  C          0.90222000       0.77192000       0.20451120
    48  C          0.09778000       0.22808000       0.79548880
    49  C          0.64152000       0.30462000       0.70550130
    50  C          0.35848000       0.69538000       0.29449870
    51  O          0.85742000      -0.00036840       0.21848100
    52  O          0.14258000       0.00036840       0.78151900
    53  C          0.83563000       0.87422000       0.25958130
    54  C          0.16437000       0.12578000       0.74041870
    55  C          0.78502000       0.39842000       0.50655130
    56  C          0.21498000       0.60158000       0.49344870
    57  C          0.63952000       0.44932000       0.64918130
    58  C          0.36048000       0.55068000       0.35081870
    59  H          0.59080000       0.51530000       0.67820000
    60  H          0.40920000       0.48470000       0.32180000
    61  C          0.85622000       0.44092000       0.40728130
    62  C          0.14378000       0.55908000       0.59271870
    63  H          0.90930000       0.37180000       0.38210000
    64  H          0.09070000       0.62820000       0.61790000
    65  C          0.95693000       0.82863000       0.10446140
    66  C          0.04307000       0.17137000       0.89553860
    67  H          0.94810000       0.92600000       0.07380000
    68  H          0.05190000       0.07400000       0.92620000
    69  C          0.70692000       0.49432000       0.55377130
    70  C          0.29308000       0.50568000       0.44622870
    71  H          0.70170000       0.59050000       0.51850000
    72  H          0.29830000       0.40950000       0.48150000
    73  C          0.71912000       0.20712000       0.65838140
    74  C          0.28088000       0.79288000       0.34161860
    75  H          0.72220000       0.11080000       0.69290000
    76  H          0.27780000       0.88920000       0.30710000
    77  N          0.57302000       0.26022000       0.79991110
    78  N          0.42698000       0.73978000       0.20008890
    79  C         -0.01407000       0.53942000       0.19406140
    80  C          0.01407000       0.46058000       0.80593860
    81  H         -0.00490000       0.44190000       0.22400000
    82  H          0.00490000       0.55810000       0.77600000
    83  C          0.04123000       0.60033000       0.09567150
    84  C          0.95877000       0.39967000       0.90432850
    85  H          0.09120000       0.54320000       0.05960000
    86  H          0.90880000       0.45680000       0.94040000
    87  C          0.57813000       0.11263000       0.85832160
    88  C          0.42187000       0.88737000       0.14167840
    89  H          0.52200000       0.10160000       0.92310000
    90  H          0.47800000       0.89840000       0.07690000
    91  H          0.70050000       0.07290000       0.86510000
    92  H          0.29950000       0.92710000       0.13490000
    93  H          0.51510000       0.06480000       0.82570000
    94  H          0.48490000       0.93520000       0.17430000
    95  C          0.02373000       0.74403000       0.05002160
    96  C          0.97627000       0.25597000       0.94997840
    97  H          0.05670000       0.78380000       0.98280000
    98  H          0.94330000       0.21620000       0.01720000
    99  C          0.49943000       0.36003000       0.84853150
   100  C          0.50057000       0.63997000       0.15146850
   101  H          0.45530000       0.30980000       0.91480000
   102  H          0.54470000       0.69020000       0.08520000
   103  H          0.40290000       0.41980000       0.81130000
   104  H          0.59710000       0.58020000       0.18870000
   105  H          0.59140000       0.41660000       0.85160000
   106  H          0.40860000       0.58340000       0.14840000
