data_SAQJOJ
_symmetry_space_group_name_H-M    'P1'
_symmetry_Int_Tables_number       1
loop_
_symmetry_equiv_pos_site_id
_symmetry_equiv_pos_as_xyz
1 x,y,z
_cell_length_a                   9.2727
_cell_length_b                   10.4527
_cell_length_c                   22.9789
_cell_angle_alpha                90.0
_cell_angle_beta                 93.396
_cell_angle_gamma                90.0
loop_
_atom_site_label
_atom_site_type_symbol
_atom_site_fract_x
_atom_site_fract_y
_atom_site_fract_z
     1  C          0.17454000       0.88137000       0.10531000
     2  C          0.82546000       0.38137000       0.39469000
     3  C          0.82546000       0.11863000       0.89469000
     4  C          0.17454000       0.61863000       0.60531000
     5  O          0.19593000       0.88598000       0.16191000
     6  O          0.80407000       0.38598000       0.33809000
     7  O          0.80407000       0.11402000       0.83809000
     8  O          0.19593000       0.61402000       0.66191000
     9  C          0.27394000       0.93917000       0.06902000
    10  C          0.72606000       0.43917000       0.43098000
    11  C          0.72606000       0.06083000       0.93098000
    12  C          0.27394000       0.56083000       0.56902000
    13  Cl         0.42261000       0.01471000       0.10201000
    14  Cl         0.57739000       0.51471000       0.39799000
    15  Cl         0.57739000       0.98529000       0.89799000
    16  Cl         0.42261000       0.48529000       0.60201000
    17  C          0.25874000       0.93567000       0.00952000
    18  C          0.74126000       0.43567000       0.49048000
    19  C          0.74126000       0.06433000       0.99048000
    20  C          0.25874000       0.56433000       0.50952000
    21  C          0.13994000       0.87627000       0.98349000
    22  C          0.86006000       0.37627000       0.51651000
    23  C          0.86006000       0.12373000       0.01651000
    24  C          0.13994000       0.62373000       0.48349000
    25  N          0.12434000       0.87137000       0.92039000
    26  N          0.87566000       0.37137000       0.57961000
    27  N          0.87566000       0.12863000       0.07961000
    28  N          0.12434000       0.62863000       0.42039000
    29  O          0.22034000       0.91487000       0.89209000
    30  O          0.77966000       0.41487000       0.60791000
    31  O          0.77966000       0.08513000       0.10791000
    32  O          0.22034000       0.58513000       0.39209000
    33  O          0.01694000       0.82107000       0.89769000
    34  O          0.98306000       0.32107000       0.60231000
    35  O          0.98306000       0.17893000       0.10231000
    36  O          0.01694000       0.67893000       0.39769000
    37  C          0.03654000       0.82156000       0.01602000
    38  C          0.96346000       0.32156000       0.48398000
    39  C          0.96346000       0.17844000       0.98398000
    40  C          0.03654000       0.67844000       0.51602000
    41  C          0.05424000       0.82477000       0.07601000
    42  C          0.94576000       0.32477000       0.42399000
    43  C          0.94576000       0.17523000       0.92399000
    44  C          0.05424000       0.67523000       0.57601000
    45  Cl         0.92369000       0.75669000       0.11681000
    46  Cl         0.07631000       0.25669000       0.38319000
    47  Cl         0.07631000       0.24331000       0.88319000
    48  Cl         0.92369000       0.74331000       0.61681000
    49  H          0.32340000       0.96770000       0.98890000
    50  H          0.67660000       0.46770000       0.51110000
    51  H          0.67660000       0.03230000       0.01110000
    52  H          0.32340000       0.53230000       0.48890000
    53  H          0.95260000       0.78170000      -0.00210000
    54  H          0.04740000       0.28170000       0.50210000
    55  H          0.04740000       0.21830000       0.00210000
    56  H          0.95260000       0.71830000       0.49790000
    57  C          0.18144000       0.60566000       0.22032000
    58  C          0.81856000       0.10566000       0.27968000
    59  C          0.81856000       0.39434000       0.77968000
    60  C          0.18144000       0.89434000       0.72032000
    61  O          0.27873000       0.57887000       0.18861000
    62  O          0.72127000       0.07887000       0.31139000
    63  O          0.72127000       0.42113000       0.81139000
    64  O          0.27873000       0.92113000       0.68861000
    65  O          0.12513000       0.71427000       0.22711000
    66  O          0.87487000       0.21427000       0.27289000
    67  O          0.87487000       0.28573000       0.77289000
    68  O          0.12513000       0.78573000       0.72711000
    69  C          0.11644000       0.50226000       0.25652000
    70  C          0.88356000       0.00226000       0.24348000
    71  C          0.88356000       0.49774000       0.74348000
    72  C          0.11644000      -0.00226000       0.75652000
    73  N          0.20113000       0.38387000       0.25531000
    74  N          0.79887000       0.88387000       0.24469000
    75  N          0.79887000       0.61613000       0.74469000
    76  N          0.20113000       0.11613000       0.75531000
    77  C          0.15935000       0.28956000       0.22022000
    78  C          0.84065000       0.78956000       0.27978000
    79  C          0.84065000       0.71044000       0.77978000
    80  C          0.15935000       0.21044000       0.72022000
    81  C          0.24036000       0.18025000       0.21843000
    82  C          0.75964000       0.68025000       0.28157000
    83  C          0.75964000       0.81975000       0.78157000
    84  C          0.24036000       0.31975000       0.71843000
    85  C          0.36397000       0.17215000       0.25233000
    86  C          0.63603000       0.67215000       0.24767000
    87  C          0.63603000       0.82785000       0.74767000
    88  C          0.36397000       0.32785000       0.75233000
    89  C          0.40776000       0.27174000       0.28802000
    90  C          0.59224000       0.77174000       0.21198000
    91  C          0.59224000       0.72826000       0.71198000
    92  C          0.40776000       0.22826000       0.78802000
    93  C          0.32395000       0.37645000       0.28872000
    94  C          0.67605000       0.87645000       0.21128000
    95  C          0.67605000       0.62355000       0.71128000
    96  C          0.32395000       0.12355000       0.78872000
    97  H          0.15650000       0.79460000       0.19620000
    98  H          0.84350000       0.29460000       0.30380000
    99  H          0.84350000       0.20540000       0.80380000
   100  H          0.15650000       0.70540000       0.69620000
   101  H          0.01750000       0.48360000       0.24020000
   102  H          0.98250000       0.98360000       0.25980000
   103  H          0.98250000       0.51640000       0.75980000
   104  H          0.01750000       0.01640000       0.74020000
   105  H          0.11640000       0.52960000       0.29520000
   106  H          0.88360000       0.02960000       0.20480000
   107  H          0.88360000       0.47040000       0.70480000
   108  H          0.11640000       0.97040000       0.79520000
   109  H          0.06750000       0.30660000       0.19420000
   110  H          0.93250000       0.80660000       0.30580000
   111  H          0.93250000       0.69340000       0.80580000
   112  H          0.06750000       0.19340000       0.69420000
   113  H          0.20050000       0.12550000       0.18420000
   114  H          0.79950000       0.62550000       0.31580000
   115  H          0.79950000       0.87450000       0.81580000
   116  H          0.20050000       0.37450000       0.68420000
   117  H          0.41050000       0.10250000       0.25220000
   118  H          0.58950000       0.60250000       0.24780000
   119  H          0.58950000       0.89750000       0.74780000
   120  H          0.41050000       0.39750000       0.75220000
   121  H          0.50560000       0.26450000       0.31120000
   122  H          0.49440000       0.76450000       0.18880000
   123  H          0.49440000       0.73550000       0.68880000
   124  H          0.50560000       0.23550000       0.81120000
   125  H          0.35050000       0.44850000       0.31520000
   126  H          0.64950000       0.94850000       0.18480000
   127  H          0.64950000       0.55150000       0.68480000
   128  H          0.35050000       0.05150000       0.81520000
   129  C          0.38213000       0.62087000       0.03881000
   130  C          0.61787000       0.12087000       0.46119000
   131  C          0.61787000       0.37913000       0.96119000
   132  C          0.38213000       0.87913000       0.53881000
   133  O          0.41663000       0.63407000       0.09531000
   134  O          0.58337000       0.13407000       0.40469000
   135  O          0.58337000       0.36593000       0.90469000
   136  O          0.41663000       0.86593000       0.59531000
   137  C          0.47284000       0.67777000      -0.00072000
   138  C          0.52716000       0.17777000       0.50072000
   139  C          0.52716000       0.32223000       0.00072000
   140  C          0.47284000       0.82223000       0.49928000
   141  Cl         0.62061000       0.76039000       0.02781000
   142  Cl         0.37939000       0.26039000       0.47219000
   143  Cl         0.37939000       0.23961000       0.97219000
   144  Cl         0.62061000       0.73961000       0.52781000
   145  C          0.44734000       0.66876000       0.94038000
   146  C          0.55266000       0.16876000       0.55962000
   147  C          0.55266000       0.33124000       0.05962000
   148  C          0.44734000       0.83124000       0.44038000
   149  C          0.32794000       0.60276000       0.91918000
   150  C          0.67206000       0.10276000       0.58082000
   151  C          0.67206000       0.39724000       0.08082000
   152  C          0.32794000       0.89724000       0.41918000
   153  N          0.29885000       0.59256000       0.85558000
   154  N          0.70115000       0.09256000       0.64442000
   155  N          0.70115000       0.40744000       0.14442000
   156  N          0.29885000       0.90744000       0.35558000
   157  O          0.38774000       0.63346000       0.82439000
   158  O          0.61226000       0.13346000       0.67561000
   159  O          0.61226000       0.36654000       0.17561000
   160  O          0.38774000       0.86654000       0.32439000
   161  O          0.18584000       0.54176000       0.83829000
   162  O          0.81416000       0.04176000       0.66171000
   163  O          0.81416000       0.45824000       0.16171000
   164  O          0.18584000       0.95824000       0.33829000
   165  C          0.23704000       0.54326000       0.95558000
   166  C          0.76296000       0.04326000       0.54442000
   167  C          0.76296000       0.45674000       0.04442000
   168  C          0.23704000       0.95674000       0.45558000
   169  C          0.26624000       0.55117000       0.01462000
   170  C          0.73376000       0.05117000       0.48538000
   171  C          0.73376000       0.44883000       0.98538000
   172  C          0.26624000       0.94883000       0.51462000
   173  Cl         0.15731000       0.47169000       0.06171000
   174  Cl         0.84269000       0.97169000       0.43829000
   175  Cl         0.84269000       0.52831000       0.93829000
   176  Cl         0.15731000       0.02831000       0.56171000
   177  H          0.36260000       0.60540000       0.11920000
   178  H          0.63740000       0.10540000       0.38080000
   179  H          0.63740000       0.39460000       0.88080000
   180  H          0.36260000       0.89460000       0.61920000
   181  H          0.51040000       0.71360000       0.91580000
   182  H          0.48960000       0.21360000       0.58420000
   183  H          0.48960000       0.28640000       0.08420000
   184  H          0.51040000       0.78640000       0.41580000
   185  H          0.15640000       0.50570000       0.93880000
   186  H          0.84360000       0.00570000       0.56120000
   187  H          0.84360000       0.49430000       0.06120000
   188  H          0.15640000      -0.00570000       0.43880000
