data_SAQNIH
_symmetry_space_group_name_H-M    'P1'
_symmetry_Int_Tables_number       1
loop_
_symmetry_equiv_pos_site_id
_symmetry_equiv_pos_as_xyz
1 x,y,z
_cell_length_a                   12.6634
_cell_length_b                   12.7756
_cell_length_c                   13.2577
_cell_angle_alpha                90.0
_cell_angle_beta                 108.553
_cell_angle_gamma                90.0
loop_
_atom_site_label
_atom_site_type_symbol
_atom_site_fract_x
_atom_site_fract_y
_atom_site_fract_z
     1  Br         0.51701000       0.10501000       0.75409000
     2  Br         0.48299000       0.60501000       0.74591000
     3  Br         0.48299000       0.89499000       0.24591000
     4  Br         0.51701000       0.39499000       0.25409000
     5  Br         0.30401000       0.13771000       0.06831000
     6  Br         0.69599000       0.63771000       0.43169000
     7  Br         0.69599000       0.86229000       0.93169000
     8  Br         0.30401000       0.36229000       0.56831000
     9  C          0.65607000       0.10803000       0.12133000
    10  C          0.34393000       0.60803000       0.37867000
    11  C          0.34393000       0.89197000       0.87867000
    12  C          0.65607000       0.39197000       0.62133000
    13  C          0.68237000       0.22423000       0.13403000
    14  C          0.31763000       0.72423000       0.36597000
    15  C          0.31763000       0.77577000       0.86597000
    16  C          0.68237000       0.27577000       0.63403000
    17  C          0.77287000       0.26123000       0.09063000
    18  C          0.22713000       0.76123000       0.40937000
    19  C          0.22713000       0.73877000       0.90937000
    20  C          0.77287000       0.23877000       0.59063000
    21  C          0.74747000       0.29073000       0.98287000
    22  C          0.25253000       0.79073000       0.51713000
    23  C          0.25253000       0.70927000       0.01713000
    24  C          0.74747000       0.20927000       0.48287000
    25  C          0.82857000       0.32733000       0.94327000
    26  C          0.17143000       0.82733000       0.55673000
    27  C          0.17143000       0.67267000       0.05673000
    28  C          0.82857000       0.17267000       0.44327000
    29  C          0.94067000       0.33483000       0.00783000
    30  C          0.05933000       0.83483000       0.49217000
    31  C          0.05933000       0.66517000      -0.00783000
    32  C          0.94067000       0.16517000       0.50783000
    33  C          0.96747000       0.30503000       0.11633000
    34  C          0.03253000       0.80503000       0.38367000
    35  C          0.03253000       0.69497000       0.88367000
    36  C          0.96747000       0.19497000       0.61633000
    37  C          0.88187000       0.26823000       0.15553000
    38  C          0.11813000       0.76823000       0.34447000
    39  C          0.11813000       0.73177000       0.84447000
    40  C          0.88187000       0.23177000       0.65553000
    41  C          0.07923000       0.31633000       0.18303000
    42  C          0.92077000       0.81633000       0.31697000
    43  C          0.92077000       0.68367000       0.81697000
    44  C          0.07923000       0.18367000       0.68303000
    45  C          0.15903000       0.35423000       0.14403000
    46  C          0.84097000       0.85423000       0.35597000
    47  C          0.84097000       0.64577000       0.85597000
    48  C          0.15903000       0.14577000       0.64403000
    49  C          0.13193000       0.38263000       0.03563000
    50  C          0.86807000       0.88263000       0.46437000
    51  C          0.86807000       0.61737000       0.96437000
    52  C          0.13193000       0.11737000       0.53563000
    53  C          0.02553000       0.37373000       0.96927000
    54  C          0.97447000       0.87373000       0.53073000
    55  C          0.97447000       0.62627000       0.03073000
    56  C          0.02553000       0.12627000       0.46927000
    57  O          0.22072000       0.41932000       0.00852000
    58  O          0.77928000       0.91932000       0.49148000
    59  O          0.77928000       0.58068000      -0.00852000
    60  O          0.22072000       0.08068000       0.50852000
    61  C          0.20063000       0.44713000       0.89897000
    62  C          0.79937000       0.94713000       0.60103000
    63  C          0.79937000       0.55287000       0.10103000
    64  C          0.20063000       0.05287000       0.39897000
    65  C          0.31193000       0.47163000       0.88537000
    66  C          0.68807000       0.97163000       0.61463000
    67  C          0.68807000       0.52837000       0.11463000
    68  C          0.31193000       0.02837000       0.38537000
    69  C          0.40023000       0.38673000       0.92647000
    70  C          0.59977000       0.88673000       0.57353000
    71  C          0.59977000       0.61327000       0.07353000
    72  C          0.40023000       0.11327000       0.42647000
    73  C          0.36453000       0.28313000       0.87407000
    74  C          0.63547000       0.78313000       0.62593000
    75  C          0.63547000       0.71687000       0.12593000
    76  C          0.36453000       0.21687000       0.37407000
    77  O          0.44522000       0.20532000       0.92948000
    78  O          0.55478000       0.70532000       0.57052000
    79  O          0.55478000       0.79468000       0.07052000
    80  O          0.44522000       0.29468000       0.42948000
    81  C          0.40843000       0.10443000       0.90997000
    82  C          0.59157000       0.60443000       0.59003000
    83  C          0.59157000       0.89557000       0.09003000
    84  C          0.40843000       0.39557000       0.40997000
    85  C          0.34543000       0.05673000       0.96647000
    86  C          0.65457000       0.55673000       0.53353000
    87  C          0.65457000       0.94327000       0.03353000
    88  C          0.34543000       0.44327000       0.46647000
    89  C          0.68547000       0.04653000       0.04753000
    90  C          0.31453000       0.54653000       0.45247000
    91  C          0.31453000       0.95347000       0.95247000
    92  C          0.68547000       0.45347000       0.54753000
    93  C          0.40303000       0.93847000       0.81847000
    94  C          0.59697000       0.43847000       0.68153000
    95  C          0.59697000       0.06153000       0.18153000
    96  C          0.40303000       0.56153000       0.31847000
    97  C          0.43383000       0.04303000       0.83487000
    98  C          0.56617000       0.54303000       0.66513000
    99  C          0.56617000       0.95697000       0.16513000
   100  C          0.43383000       0.45697000       0.33487000
   101  H          0.70280000       0.24170000       0.20770000
   102  H          0.29720000       0.74170000       0.29230000
   103  H          0.29720000       0.75830000       0.79230000
   104  H          0.70280000       0.25830000       0.70770000
   105  H          0.61560000       0.26180000       0.09780000
   106  H          0.38440000       0.76180000       0.40220000
   107  H          0.38440000       0.73820000       0.90220000
   108  H          0.61560000       0.23820000       0.59780000
   109  H          0.67190000       0.28500000       0.93720000
   110  H          0.32810000       0.78500000       0.56280000
   111  H          0.32810000       0.71500000       0.06280000
   112  H          0.67190000       0.21500000       0.43720000
   113  H          0.80870000       0.34770000       0.87030000
   114  H          0.19130000       0.84770000       0.62970000
   115  H          0.19130000       0.65230000       0.12970000
   116  H          0.80870000       0.15230000       0.37030000
   117  H          0.89980000       0.24820000       0.22850000
   118  H          0.10020000       0.74820000       0.27150000
   119  H          0.10020000       0.75180000       0.77150000
   120  H          0.89980000       0.25180000       0.72850000
   121  H          0.09840000       0.29700000       0.25630000
   122  H          0.90160000       0.79700000       0.24370000
   123  H          0.90160000       0.70300000       0.74370000
   124  H          0.09840000       0.20300000       0.75630000
   125  H          0.23430000       0.36230000       0.18970000
   126  H          0.76570000       0.86230000       0.31030000
   127  H          0.76570000       0.63770000       0.81030000
   128  H          0.23430000       0.13770000       0.68970000
   129  H          0.00800000       0.39460000       0.89660000
   130  H         -0.00800000       0.89460000       0.60340000
   131  H         -0.00800000       0.60540000       0.10340000
   132  H          0.00800000       0.10540000       0.39660000
   133  H          0.15090000       0.50570000       0.87990000
   134  H          0.84910000       0.00570000       0.62010000
   135  H          0.84910000       0.49430000       0.12010000
   136  H          0.15090000      -0.00570000       0.37990000
   137  H          0.16740000       0.38900000       0.85450000
   138  H          0.83260000       0.88900000       0.64550000
   139  H          0.83260000       0.61100000       0.14550000
   140  H          0.16740000       0.11100000       0.35450000
   141  H          0.33800000       0.53620000       0.92140000
   142  H          0.66200000       0.03620000       0.57860000
   143  H          0.66200000       0.46380000       0.07860000
   144  H          0.33800000       0.96380000       0.42140000
   145  H          0.30180000       0.48210000       0.81150000
   146  H          0.69820000       0.98210000       0.68850000
   147  H          0.69820000       0.51790000       0.18850000
   148  H          0.30180000       0.01790000       0.31150000
   149  H          0.41410000       0.37840000       0.00130000
   150  H          0.58590000       0.87840000       0.49870000
   151  H          0.58590000       0.62160000      -0.00130000
   152  H          0.41410000       0.12160000       0.50130000
   153  H          0.46840000       0.40790000       0.91550000
   154  H          0.53160000       0.90790000       0.58450000
   155  H          0.53160000       0.59210000       0.08450000
   156  H          0.46840000       0.09210000       0.41550000
   157  H          0.36050000       0.28720000       0.80090000
   158  H          0.63950000       0.78720000       0.69910000
   159  H          0.63950000       0.71280000       0.19910000
   160  H          0.36050000       0.21280000       0.30090000
   161  H          0.29240000       0.26430000       0.87790000
   162  H          0.70760000       0.76430000       0.62210000
   163  H          0.70760000       0.73570000       0.12210000
   164  H          0.29240000       0.23570000       0.37790000
   165  H          0.72850000       0.07620000       0.00680000
   166  H          0.27150000       0.57620000       0.49320000
   167  H          0.27150000       0.92380000      -0.00680000
   168  H          0.72850000       0.42380000       0.50680000
   169  H          0.42280000       0.89780000       0.76660000
   170  H          0.57720000       0.39780000       0.73340000
   171  H          0.57720000       0.10220000       0.23340000
   172  H          0.42280000       0.60220000       0.26660000
   173  Cl        -0.01071000      -0.00411000       0.15781000
   174  Cl         0.01071000       0.49589000       0.34219000
   175  Cl         0.01071000       0.00411000       0.84219000
   176  Cl        -0.01071000       0.50411000       0.65781000
   177  C         -0.00785000       0.04454000       0.03204000
   178  C          0.00785000       0.54454000       0.46796000
   179  C          0.00785000       0.95546000       0.96796000
   180  C         -0.00785000       0.45546000       0.53204000
