data_SARDIY
_symmetry_space_group_name_H-M    'P1'
_symmetry_Int_Tables_number       1
loop_
_symmetry_equiv_pos_site_id
_symmetry_equiv_pos_as_xyz
1 x,y,z
_cell_length_a                   26.6295
_cell_length_b                   5.42601
_cell_length_c                   8.0952
_cell_angle_alpha                90.0
_cell_angle_beta                 95.152
_cell_angle_gamma                90.0
loop_
_atom_site_label
_atom_site_type_symbol
_atom_site_fract_x
_atom_site_fract_y
_atom_site_fract_z
     1  O          0.14021500       0.46673000      -0.01428000
     2  O          0.85978500       0.96673000       0.51428000
     3  O          0.85978500       0.53327000       0.01428000
     4  O          0.14021500       0.03327000       0.48572000
     5  H          0.13208000       0.31534500       0.02793000
     6  H          0.86792000       0.81534500       0.47207000
     7  H          0.86792000       0.68465500       0.97207000
     8  H          0.13208000       0.18465500       0.52793000
     9  C          0.19076700       0.47144000       0.96382000
    10  C          0.80923300       0.97144000       0.53618000
    11  C          0.80923300       0.52856000       0.03618000
    12  C          0.19076700       0.02856000       0.46382000
    13  C          0.20854700       0.66404000       0.87503000
    14  C          0.79145300       0.16404000       0.62497000
    15  C          0.79145300       0.33596000       0.12497000
    16  C          0.20854700       0.83596000       0.37503000
    17  H          0.18547700       0.79424000       0.83183000
    18  H          0.81452300       0.29424000       0.66817000
    19  H          0.81452300       0.20576000       0.16817000
    20  H          0.18547700       0.70576000       0.33183000
    21  C          0.25894700       0.67384000       0.84683000
    22  C          0.74105300       0.17384000       0.65317000
    23  C          0.74105300       0.32616000       0.15317000
    24  C          0.25894700       0.82616000       0.34683000
    25  H          0.27095700       0.81234000       0.78333000
    26  H          0.72904300       0.31234000       0.71667000
    27  H          0.72904300       0.18766000       0.21667000
    28  H          0.27095700       0.68766000       0.28333000
    29  C          0.29318700       0.49363000       0.90552000
    30  C          0.70681300      -0.00637000       0.59448000
    31  C          0.70681300       0.50637000       0.09448000
    32  C          0.29318700       0.00637000       0.40552000
    33  C          0.27409700       0.30574000      -0.00278000
    34  C          0.72590300       0.80574000       0.50278000
    35  C          0.72590300       0.69426000       0.00278000
    36  C          0.27409700       0.19426000       0.49722000
    37  H          0.29706700       0.17664000       0.04282000
    38  H          0.70293300       0.67664000       0.45718000
    39  H          0.70293300       0.82336000       0.95718000
    40  H          0.29706700       0.32336000       0.54282000
    41  C          0.22381700       0.29354000       0.02673000
    42  C          0.77618300       0.79354000       0.47327000
    43  C          0.77618300       0.70646000       0.97327000
    44  C          0.22381700       0.20646000       0.52673000
    45  H          0.21175700       0.15774000       0.09253000
    46  H          0.78824300       0.65774000       0.40747000
    47  H          0.78824300       0.84226000       0.90747000
    48  H          0.21175700       0.34226000       0.59253000
    49  C          0.34732700       0.50043000       0.87082000
    50  C          0.65267300       0.00043000       0.62918000
    51  C          0.65267300       0.49957000       0.12918000
    52  C          0.34732700      -0.00043000       0.37082000
    53  C          0.36592700       0.68264000       0.77323000
    54  C          0.63407300       0.18264000       0.72677000
    55  C          0.63407300       0.31736000       0.22677000
    56  C          0.36592700       0.81736000       0.27323000
    57  H          0.34300700       0.81074000       0.72593000
    58  H          0.65699300       0.31074000       0.77407000
    59  H          0.65699300       0.18926000       0.27407000
    60  H          0.34300700       0.68926000       0.22593000
    61  C          0.41602800       0.68835000       0.74073000
    62  C          0.58397200       0.18835000       0.75927000
    63  C          0.58397200       0.31165000       0.25927000
    64  C          0.41602800       0.81165000       0.24073000
    65  H          0.42802800       0.81915000       0.67053000
    66  H          0.57197200       0.31915000       0.82947000
    67  H          0.57197200       0.18085000       0.32947000
    68  H          0.42802800       0.68085000       0.17053000
    69  C          0.44889800       0.51314000       0.80573000
    70  C          0.55110200       0.01314000       0.69427000
    71  C          0.55110200       0.48686000       0.19427000
    72  C          0.44889800      -0.01314000       0.30573000
    73  H          0.48446800       0.51804000       0.78363000
    74  H          0.51553200       0.01804000       0.71637000
    75  H          0.51553200       0.48196000       0.21637000
    76  H          0.48446800      -0.01804000       0.28363000
    77  C          0.43151800       0.33105000       0.90183000
    78  C          0.56848200       0.83105000       0.59817000
    79  C          0.56848200       0.66895000       0.09817000
    80  C          0.43151800       0.16895000       0.40183000
    81  H          0.45477800       0.20415000       0.94883000
    82  H          0.54522200       0.70415000       0.55117000
    83  H          0.54522200       0.79585000       0.05117000
    84  H          0.45477800       0.29585000       0.44883000
    85  C          0.38140700       0.32404000       0.93373000
    86  C          0.61859300       0.82404000       0.56627000
    87  C          0.61859300       0.67596000       0.06627000
    88  C          0.38140700       0.17596000       0.43373000
    89  H          0.36970700       0.19084000       0.00253000
    90  H          0.63029300       0.69084000       0.49747000
    91  H          0.63029300       0.80916000      -0.00253000
    92  H          0.36970700       0.30916000       0.50253000
    93  N          0.10406600       0.47764000       0.60413000
    94  N          0.89593400      -0.02236000       0.89587000
    95  N          0.89593400       0.52236000       0.39587000
    96  N          0.10406600       0.02236000       0.10413000
    97  H          0.10998000       0.45304000       0.72372900
    98  H          0.89002000       0.95304000       0.77627100
    99  H          0.89002000       0.54696000       0.27627100
   100  H          0.10998000       0.04696000       0.22372900
   101  H          0.11898000       0.62314300       0.57912900
   102  H          0.88102000       0.12314300       0.92087100
   103  H          0.88102000       0.37685700       0.42087100
   104  H          0.11898000       0.87685700       0.07912900
   105  C          0.05112700       0.49284000       0.55302000
   106  C          0.94887300      -0.00716000       0.94698000
   107  C          0.94887300       0.50716000       0.44698000
   108  C          0.05112700       0.00716000       0.05302000
   109  C          0.01867700       0.32074000       0.60843000
   110  C          0.98132300       0.82074000       0.89157000
   111  C          0.98132300       0.67926000       0.39157000
   112  C          0.01867700       0.17926000       0.10843000
   113  H          0.03160700       0.19174000       0.68563000
   114  H          0.96839300       0.69174000       0.81437000
   115  H          0.96839300       0.80826000       0.31437000
   116  H          0.03160700       0.30826000       0.18563000
   117  C          0.03220700       0.67124000       0.44443000
   118  C          0.96779300       0.17124000       0.05557000
   119  C          0.96779300       0.32876000       0.55557000
   120  C          0.03220700       0.82876000       0.94443000
   121  H          0.05501700       0.79454000       0.40373000
   122  H          0.94498300       0.29454000       0.09627000
   123  H          0.94498300       0.20546000       0.59627000
   124  H          0.05501700       0.70546000       0.90373000
