data_SARJOL
_symmetry_space_group_name_H-M    'P1'
_symmetry_Int_Tables_number       1
loop_
_symmetry_equiv_pos_site_id
_symmetry_equiv_pos_as_xyz
1 x,y,z
_cell_length_a                   8.1394
_cell_length_b                   8.6014
_cell_length_c                   19.08011
_cell_angle_alpha                84.544
_cell_angle_beta                 79.884
_cell_angle_gamma                62.233
loop_
_atom_site_label
_atom_site_type_symbol
_atom_site_fract_x
_atom_site_fract_y
_atom_site_fract_z
     1  O          0.82059160       0.54086130       0.21433600
     2  O          0.17940840       0.45913870       0.78566400
     3  N          0.27359150       0.03711130       0.28284500
     4  N          0.72640850       0.96288870       0.71715500
     5  N          0.52669150       0.06323130       0.21425500
     6  N          0.47330850       0.93676870       0.78574500
     7  H          0.45960000       0.17540000       0.21270000
     8  H          0.54040000       0.82460000       0.78730000
     9  N          0.55473150       0.78916130       0.24794600
    10  N          0.44526850       0.21083870       0.75205400
    11  H          0.50450000       0.72590000       0.26960000
    12  H          0.49550000       0.27410000       0.73040000
    13  C          0.44823170       0.96443150       0.24901600
    14  C          0.55176830       0.03556850       0.75098400
    15  C          0.71054180      -0.00919820       0.18116700
    16  C          0.28945820       0.00919820       0.81883300
    17  C          0.81752190       0.81550180       0.18169700
    18  C          0.18247810       0.18449820       0.81830300
    19  H          0.94260000       0.76770000       0.16060000
    20  H          0.05740000       0.23230000       0.83940000
    21  C          0.74099190       0.70123170       0.21443700
    22  C          0.25900810       0.29876830       0.78556300
    23  C          0.77802000       0.11772000       0.14654800
    24  C          0.22198000       0.88228000       0.85345200
    25  H          0.90680000       0.05460000       0.12510000
    26  H          0.09320000       0.94540000       0.87490000
    27  H          0.76800000       0.19580000       0.18170000
    28  H          0.23200000       0.80420000       0.81830000
    29  H          0.70270000       0.18450000       0.11060000
    30  H          0.29730000       0.81550000       0.88940000
    31  C          0.20012190       0.93753170       0.33465700
    32  C          0.79987810       0.06246830       0.66534300
    33  H          0.13010000       0.00910000       0.37630000
    34  H          0.86990000      -0.00910000       0.62370000
    35  H          0.30490000       0.83310000       0.34980000
    36  H          0.69510000       0.16690000       0.65020000
    37  C          0.07412000       0.88342000       0.30489800
    38  C          0.92588000       0.11658000       0.69510200
    39  H          0.03060000       0.81930000       0.34070000
    40  H          0.96940000       0.18070000       0.65930000
    41  H          0.14330000       0.81030000       0.26430000
    42  H          0.85670000       0.18970000       0.73570000
    43  H          0.96850000      -0.01370000       0.29080000
    44  H          0.03150000       0.01370000       0.70920000
    45  C          0.14289180       0.22422160       0.27334700
    46  C          0.85710820       0.77577840       0.72665300
    47  H          0.01830000       0.23660000       0.27300000
    48  H          0.98170000       0.76340000       0.72700000
    49  H          0.18230000       0.26580000       0.22760000
    50  H          0.81770000       0.73420000       0.77240000
    51  C          0.13422000       0.33714190       0.33170800
    52  C          0.86578000       0.66285810       0.66829200
    53  H          0.04790000       0.45760000       0.32340000
    54  H          0.95210000       0.54240000       0.67660000
    55  H          0.25670000       0.32710000       0.33170000
    56  H          0.74330000       0.67290000       0.66830000
    57  H          0.09260000       0.29820000       0.37700000
    58  H          0.90740000       0.70180000       0.62300000
    59  O          0.46161140       0.52186110       0.30578500
    60  O          0.53838860       0.47813890       0.69421500
    61  O          0.60701150       0.24072120       0.33935500
    62  O          0.39298850       0.75927880       0.66064500
    63  O          0.59987150       0.93548130       0.37991500
    64  O          0.40012850       0.06451870       0.62008500
    65  H          0.60760000       0.03100000       0.37700000
    66  H          0.39240000       0.96900000       0.62300000
    67  O          0.74220160       0.89537140       0.47475600
    68  O          0.25779840       0.10462860       0.52524400
    69  N          0.62183150       0.61453140       0.39438500
    70  N          0.37816850       0.38546860       0.60561500
    71  C          0.56708180       0.39567160       0.34457700
    72  C          0.43291820       0.60432840       0.65542300
    73  C          0.64111170       0.45083160       0.39991600
    74  C          0.35888830       0.54916840       0.60008400
    75  C          0.72473180       0.33117170       0.45323700
    76  C          0.27526820       0.66882830       0.54676300
    77  H          0.73790000       0.21760000       0.45460000
    78  H          0.26210000       0.78240000       0.54540000
    79  C          0.78734190       0.38672190       0.50393700
    80  C          0.21265810       0.61327810       0.49606300
    81  H          0.84100000       0.31170000       0.54090000
    82  H          0.15900000       0.68830000       0.45910000
    83  C          0.76900190       0.55586180       0.49887700
    84  C          0.23099810       0.44413820       0.50112300
    85  H          0.81040000       0.59600000       0.53230000
    86  H          0.18960000       0.40400000       0.46770000
    87  C          0.68749170       0.66420170       0.44287600
    88  C          0.31250830       0.33579830       0.55712400
    89  C          0.67893190       0.84401170       0.43500700
    90  C          0.32106810       0.15598830       0.56499300
    91  O          0.38016150       0.43365120       0.20388500
    92  O          0.61983850       0.56634880       0.79611500
    93  H          0.41690000       0.47870000       0.25200000
    94  H          0.58310000       0.52130000       0.74800000
    95  O          0.33339160       0.68494130       0.14670500
    96  O          0.66660840       0.31505870       0.85329500
    97  O          0.31245170      -0.00078130       0.11428500
    98  O          0.68754830       0.00078130       0.88571500
    99  H          0.31550000       0.89150000       0.11760000
   100  H          0.68450000       0.10850000       0.88240000
   101  O          0.26352000       0.00048150       0.00356600
   102  O          0.73648000      -0.00048150      -0.00356600
   103  N          0.30821150       0.31227140       0.09654600
   104  N          0.69178850       0.68772860       0.90345400
   105  C          0.34066180       0.53947160       0.14991700
   106  C          0.65933820       0.46052840       0.85008300
   107  C          0.30199170       0.47117160       0.08771700
   108  C          0.69800830       0.52882840       0.91228300
   109  C          0.26478190       0.57153170       0.02533700
   110  C          0.73521810       0.42846830       0.97466300
   111  H          0.25970000       0.68230000       0.02160000
   112  H          0.74030000       0.31770000       0.97840000
   113  C          0.23572000       0.50185190       0.96901300
   114  C          0.76428000       0.49814810       0.03098700
   115  H          0.21130000       0.56470000       0.92640000
   116  H          0.78870000       0.43530000       0.07360000
   117  C          0.24342000       0.33701180       0.97706300
   118  C          0.75658000       0.66298820       0.02293700
   119  H          0.22530000       0.28670000       0.93990000
   120  H          0.77470000       0.71330000       0.06010000
   121  C          0.27864180       0.24830170       0.04171700
   122  C          0.72135820       0.75169830       0.95828300
   123  C          0.28372000       0.06989180       0.05063700
   124  C          0.71628000       0.93010820       0.94936300
