data_SARLEC
_symmetry_space_group_name_H-M    'P1'
_symmetry_Int_Tables_number       1
loop_
_symmetry_equiv_pos_site_id
_symmetry_equiv_pos_as_xyz
1 x,y,z
_cell_length_a                   4.48787
_cell_length_b                   8.7852
_cell_length_c                   11.9871
_cell_angle_alpha                70.001
_cell_angle_beta                 86.671
_cell_angle_gamma                82.181
loop_
_atom_site_label
_atom_site_type_symbol
_atom_site_fract_x
_atom_site_fract_y
_atom_site_fract_z
     1  N          0.22676000       0.27913000       0.92802000
     2  N          0.77324000       0.72087000       0.07198000
     3  H          0.15926500       0.20433500       0.98612500
     4  H          0.84073500       0.79566500       0.01387500
     5  H          0.10506700       0.32523400       0.87752600
     6  H          0.89493300       0.67476600       0.12247400
     7  C          0.35505000       0.39263000       0.96532000
     8  C          0.64495000       0.60737000       0.03468000
     9  C          0.39816000       0.54493000       0.88642000
    10  C          0.60184000       0.45507000       0.11358000
    11  H          0.32796000       0.57743000       0.80652000
    12  H          0.67204000       0.42257000       0.19348000
    13  C          0.45946000       0.34883000       0.07932000
    14  C          0.54054000       0.65117000       0.92068000
    15  H          0.43276000       0.24333000       0.13552000
    16  H          0.56724000       0.75667000       0.86448000
    17  Cl         0.18572000       0.28383900       0.38541600
    18  Cl         0.81428000       0.71616100       0.61458400
    19  O          0.70375000       0.07552000       0.87202000
    20  O          0.29625000       0.92448000       0.12798000
    21  H          0.55463100       0.13383600       0.88052700
    22  H          0.44536900       0.86616400       0.11947300
    23  C          0.80854000       0.12923000       0.75812000
    24  C          0.19146000       0.87077000       0.24188000
    25  C          0.03236000       0.03013000       0.72442000
    26  C          0.96764000       0.96987000       0.27558000
    27  H          0.10806000       0.92677000       0.78112000
    28  H          0.89194000       0.07323000       0.21888000
    29  C          0.14967000       0.07623000       0.61093000
    30  C          0.85033000       0.92377000       0.38907000
    31  H          0.30747000       0.00623000       0.58873000
    32  H          0.69253000      -0.00623000       0.41127000
    33  C          0.03966000       0.22273000       0.52972000
    34  C          0.96034000       0.77727000       0.47028000
    35  C          0.81904000       0.32263000       0.56222000
    36  C          0.18096000       0.67737000       0.43778000
    37  H          0.74424000       0.42603000       0.50542000
    38  H          0.25576000       0.57397000       0.49458000
    39  C          0.70284000       0.27613000       0.67592000
    40  C          0.29716000       0.72387000       0.32408000
    41  H          0.54654000       0.34703000       0.69792000
    42  H          0.45346000       0.65297000       0.30208000
