data_SARLOP
_symmetry_space_group_name_H-M    'P1'
_symmetry_Int_Tables_number       1
loop_
_symmetry_equiv_pos_site_id
_symmetry_equiv_pos_as_xyz
1 x,y,z
_cell_length_a                   12.0104
_cell_length_b                   12.1475
_cell_length_c                   16.3297
_cell_angle_alpha                90.00211
_cell_angle_beta                 74.2177
_cell_angle_gamma                71.3231
loop_
_atom_site_label
_atom_site_type_symbol
_atom_site_fract_x
_atom_site_fract_y
_atom_site_fract_z
     1  I          0.85602300       0.11705300       0.19691200
     2  I          0.14397700       0.88294700       0.80308800
     3  I          0.55681400       0.79107700       0.17225200
     4  I          0.44318600       0.20892300       0.82774800
     5  Br         0.72019500       0.98005600       0.06201300
     6  Br         0.27980500       0.01994400       0.93798700
     7  F          0.01473000       0.25932000       0.24732000
     8  F          0.98527000       0.74068000       0.75268000
     9  F          0.13553000       0.39243000       0.16162000
    10  F          0.86447000       0.60757000       0.83838000
    11  F          0.14613000       0.42242000      -0.00422000
    12  F          0.85387000       0.57758000       0.00422000
    13  F          0.03373000       0.31702000       0.91618000
    14  F          0.96627000       0.68298000       0.08382000
    15  F          0.88523000       0.15262000       0.78338000
    16  F          0.11477000       0.84738000       0.21662000
    17  F          0.80004000       0.03523000       0.68998000
    18  F          0.19996000       0.96477000       0.31002000
    19  F          0.67593000       0.89538000       0.76318000
    20  F          0.32407000       0.10462000       0.23682000
    21  F          0.45303000       0.70208000       0.88148000
    22  F          0.54697000       0.29792000       0.11852000
    23  F          0.31423000       0.57598000       0.95418000
    24  F          0.68577000       0.42402000       0.04582000
    25  F          0.27863000       0.54397000       0.12192000
    26  F          0.72137000       0.45603000       0.87808000
    27  F          0.38544000       0.63447000       0.21522000
    28  F          0.61456000       0.36553000       0.78478000
    29  C          0.95584000       0.21773000       0.12673000
    30  C          0.04416000       0.78227000       0.87327000
    31  C          0.01614000       0.27174000       0.16564000
    32  C          0.98386000       0.72826000       0.83436000
    33  C          0.07944000       0.34034000       0.12164000
    34  C          0.92056000       0.65966000       0.87836000
    35  C          0.08375000       0.35564000       0.03874000
    36  C          0.91625000       0.64436000       0.96126000
    37  C          0.02624000       0.30154000      -0.00203000
    38  C          0.97376000       0.69846000       0.00203000
    39  C          0.96224000       0.23143000       0.04113000
    40  C          0.03776000       0.76857000       0.95887000
    41  C          0.90644000       0.17513000      -0.00573000
    42  C          0.09356000       0.82487000       0.00573000
    43  C          0.86234000       0.12873000       0.95557000
    44  C          0.13766000       0.87127000       0.04443000
    45  C          0.80944000       0.07053000       0.90707000
    46  C          0.19056000       0.92947000       0.09293000
    47  C          0.82584000       0.08174000       0.82107000
    48  C          0.17416000       0.91826000       0.17893000
    49  C          0.78165000       0.02404000       0.77257000
    50  C          0.21835000       0.97596000       0.22743000
    51  C          0.71784000       0.95166000       0.81177000
    52  C          0.28216000       0.04834000       0.18823000
    53  C          0.69634000       0.93757000       0.89747000
    54  C          0.30366000       0.06243000       0.10253000
    55  C          0.74354000      -0.00293000       0.94567000
    56  C          0.25646000       0.00293000       0.05433000
    57  C          0.62764000       0.86377000       0.93607000
    58  C          0.37236000       0.13623000       0.06393000
    59  C          0.56944000       0.80407000       0.96807000
    60  C          0.43056000       0.19593000       0.03193000
    61  C          0.49744000       0.73417000       0.01003000
    62  C          0.50256000       0.26583000       0.98997000
    63  C          0.44034000       0.68547000       0.96347000
    64  C          0.55966000       0.31453000       0.03653000
    65  C          0.36774000       0.62127000       0.00133000
    66  C          0.63226000       0.37873000      -0.00133000
    67  C          0.35075000       0.60516000       0.08434000
    68  C          0.64925000       0.39484000       0.91566000
    69  C          0.40515000       0.65236000       0.13194000
    70  C          0.59485000       0.34764000       0.86806000
    71  C          0.47914000       0.71707000       0.09543000
    72  C          0.52086000       0.28293000       0.90457000
    73  I          0.68544400       0.93803700       0.28491300
    74  I          0.31455600       0.06196300       0.71508700
    75  P          0.78093120       0.40216900       0.50526800
    76  P          0.21906880       0.59783100       0.49473200
    77  C          0.93144000       0.32563000       0.51313000
    78  C          0.06856000       0.67437000       0.48687000
    79  C          0.94285000       0.26944000       0.58713000
    80  C          0.05715000       0.73056000       0.41287000
    81  C          0.05596000       0.20774000       0.59444000
    82  C          0.94404000       0.79226000       0.40556000
    83  C          0.15956000       0.19984000       0.53004000
    84  C          0.84044000       0.80016000       0.46996000
    85  C          0.14985000       0.25185000       0.45644000
    86  C          0.85015000       0.74815000       0.54356000
    87  C          0.03684000       0.31434000       0.44793000
    88  C          0.96316000       0.68566000       0.55207000
    89  C          0.78644000       0.45273000       0.40173000
    90  C          0.21356000       0.54727000       0.59827000
    91  C          0.84546000       0.53434000       0.37553000
    92  C          0.15454000       0.46566000       0.62447000
    93  C          0.84727000       0.57705000       0.29744000
    94  C          0.15273000       0.42295000       0.70256000
    95  C          0.79107000       0.54165000       0.24604000
    96  C          0.20893000       0.45835000       0.75396000
    97  C          0.73306000       0.46166000       0.27043000
    98  C          0.26694000       0.53834000       0.72957000
    99  C          0.72925000       0.41714000       0.34963000
   100  C          0.27075000       0.58286000       0.65037000
   101  C          0.69944000       0.30093000       0.52283000
   102  C          0.30056000       0.69907000       0.47717000
   103  C          0.75386000       0.19354000       0.47434000
   104  C          0.24614000       0.80646000       0.52566000
   105  C          0.69229000       0.11315000       0.48685000
   106  C          0.30771000       0.88685000       0.51315000
   107  C          0.58147000       0.13695000       0.54634000
   108  C          0.41853000       0.86305000       0.45366000
   109  C          0.52737000       0.24205000       0.59354000
   110  C          0.47263000       0.75795000       0.40646000
   111  C          0.58635000       0.32464000       0.58213000
   112  C          0.41365000       0.67536000       0.41787000
   113  C          0.70294000       0.52683000       0.58273000
   114  C          0.29706000       0.47317000       0.41727000
   115  C          0.60495000       0.61434000       0.56743000
   116  C          0.39505000       0.38566000       0.43257000
   117  C          0.53925000       0.71004000       0.62593000
   118  C          0.46075000       0.28996000       0.37407000
   119  C          0.56975000       0.71974000       0.69993000
   120  C          0.43025000       0.28026000       0.30007000
   121  C          0.66496000       0.63454000       0.71513000
   122  C          0.33504000       0.36546000       0.28487000
   123  C          0.73325000       0.53744000       0.65713000
   124  C          0.26675000       0.46256000       0.34287000
   125  H          0.87750000       0.27240000       0.62830000
   126  H          0.12250000       0.72760000       0.37170000
   127  H          0.06650000       0.18340000       0.64330000
   128  H          0.93350000       0.81660000       0.35670000
   129  H          0.23760000       0.16750000       0.53840000
   130  H          0.76240000       0.83250000       0.46160000
   131  H          0.21350000       0.24240000       0.41640000
   132  H          0.78650000       0.75760000       0.58360000
   133  H          0.02440000       0.34330000       0.40130000
   134  H          0.97560000       0.65670000       0.59870000
   135  H          0.86750000       0.58050000       0.41540000
   136  H          0.13250000       0.41950000       0.58460000
   137  H          0.89250000       0.63050000       0.27940000
   138  H          0.10750000       0.36950000       0.72060000
   139  H          0.78770000       0.56070000       0.19260000
   140  H          0.21230000       0.43930000       0.80740000
   141  H          0.69540000       0.43630000       0.23630000
   142  H          0.30460000       0.56370000       0.76370000
   143  H          0.68730000       0.35930000       0.36820000
   144  H          0.31270000       0.64070000       0.63180000
   145  H          0.82850000       0.17440000       0.44130000
   146  H          0.17150000       0.82560000       0.55870000
   147  H          0.72470000       0.06460000       0.45650000
   148  H          0.27530000       0.93540000       0.54350000
   149  H          0.53650000       0.07540000       0.55630000
   150  H          0.46350000       0.92460000       0.44370000
   151  H          0.46840000       0.25330000       0.62830000
   152  H          0.53160000       0.74670000       0.37170000
   153  H          0.54940000       0.39340000       0.61130000
   154  H          0.45060000       0.60660000       0.38870000
   155  H          0.58140000       0.60530000       0.52030000
   156  H          0.41860000       0.39470000       0.47970000
   157  H          0.47450000       0.74940000       0.60930000
   158  H          0.52550000       0.25060000       0.39070000
   159  H          0.52340000       0.78240000       0.73630000
   160  H          0.47660000       0.21760000       0.26370000
   161  H          0.68650000       0.64340000       0.75430000
   162  H          0.31350000       0.35660000       0.24570000
   163  H          0.80560000       0.48750000       0.66440000
   164  H          0.19440000       0.51250000       0.33560000
