data_SATJUT
_symmetry_space_group_name_H-M    'P1'
_symmetry_Int_Tables_number       1
loop_
_symmetry_equiv_pos_site_id
_symmetry_equiv_pos_as_xyz
1 x,y,z
_cell_length_a                   10.166916
_cell_length_b                   10.942516
_cell_length_c                   13.651012
_cell_angle_alpha                74.0011
_cell_angle_beta                 77.00811
_cell_angle_gamma                88.03913
loop_
_atom_site_label
_atom_site_type_symbol
_atom_site_fract_x
_atom_site_fract_y
_atom_site_fract_z
     1  Cl         0.89320700       0.67999600       0.04442500
     2  Cl         0.10679300       0.32000400       0.95557500
     3  Cl         0.29044700       0.81874700       0.63548500
     4  Cl         0.70955300       0.18125300       0.36451500
     5  O          0.96023130       0.34313130       0.51044100
     6  O          0.03976870       0.65686870       0.48955900
     7  H          0.92760000       0.41120000       0.48090000
     8  H          0.07240000       0.58880000       0.51910000
     9  O          0.13603130       0.43840130       0.61551110
    10  O          0.86396870       0.56159870       0.38448890
    11  C          0.87196180       0.28589170       0.60853130
    12  C          0.12803820       0.71410830       0.39146870
    13  C          0.91755180       0.32625170       0.69969140
    14  C          0.08244820       0.67374830       0.30030860
    15  C          0.83664180       0.44801170       0.70190140
    16  C          0.16335820       0.55198830       0.29809860
    17  H          0.87210000       0.51290000       0.63390000
    18  H          0.12790000       0.48710000       0.36610000
    19  C          0.69490180       0.40500170       0.69988140
    20  C          0.30509820       0.59499830       0.30011860
    21  H          0.65730000       0.34240000       0.76870000
    22  H          0.34270000       0.65760000       0.23130000
    23  C          0.72436180       0.33187170       0.61574140
    24  C          0.27563820       0.66812830       0.38425860
    25  H          0.71720000       0.39100000       0.54690000
    26  H          0.28280000       0.60900000       0.45310000
    27  C          0.63282000       0.21307190       0.63905160
    28  C          0.36718000       0.78692810       0.36094840
    29  H          0.57050000       0.19800000       0.70850000
    30  H          0.42950000       0.80200000       0.29150000
    31  H          0.57910000       0.22300000       0.58530000
    32  H          0.42090000       0.77700000       0.41470000
    33  C          0.72852000       0.10505180       0.63666140
    34  C          0.27148000       0.89494820       0.36333860
    35  C          0.86168190       0.14435170       0.62194140
    36  C          0.13831810       0.85564830       0.37805860
    37  C          0.07095180       0.34461170       0.67452140
    38  C          0.92904820       0.65538830       0.32547860
    39  C          0.12547190       0.22882170       0.73362140
    40  C          0.87452810       0.77117830       0.26637860
    41  C          0.02005190       0.15240170       0.80421140
    42  C          0.97994810       0.84759830       0.19578860
    43  C          0.88771180       0.21758180       0.80280140
    44  C          0.11228820       0.78241820       0.19719860
    45  H          0.85890000       0.25190000       0.86400000
    46  H          0.14110000       0.74810000       0.13600000
    47  H          0.81630000       0.15820000       0.80290000
    48  H          0.18370000       0.84180000       0.19710000
    49  C          0.25882000       0.19162000       0.72288170
    50  C          0.74118000       0.80838000       0.27711830
    51  H          0.33000000       0.24560000       0.67530000
    52  H          0.67000000       0.75440000       0.32470000
    53  C          0.28482000       0.07312000       0.78378190
    54  C          0.71518000       0.92688000       0.21621810
    55  H          0.37500000       0.04520000       0.77830000
    56  H          0.62500000       0.95480000       0.22170000
    57  C          0.17942000      -0.00522000       0.85288180
    58  C          0.82058000       0.00522000       0.14711820
    59  H          0.19880000       0.91340000       0.89320000
    60  H          0.80120000       0.08660000       0.10680000
    61  C          0.04712000       0.03305190       0.86426150
    62  C          0.95288000       0.96694810       0.13573850
    63  H          0.97610000       0.97900000       0.91210000
    64  H          0.02390000       0.02100000       0.08790000
    65  C          0.84693190       0.50707170       0.78806140
    66  C          0.15306810       0.49292830       0.21193860
    67  C          0.94902000       0.59652180       0.77161160
    68  C          0.05098000       0.40347820       0.22838840
    69  H          0.00990000       0.62190000       0.70520000
    70  H         -0.00990000       0.37810000       0.29480000
    71  C          0.96422000       0.64960190       0.84958170
    72  C          0.03578000       0.35039810       0.15041830
    73  H          0.03490000       0.71040000       0.83680000
    74  H          0.96510000       0.28960000       0.16320000
    75  C          0.87602000       0.61353190       0.94561160
    76  C          0.12398000       0.38646810       0.05438840
    77  C          0.77232000       0.52682000       0.96440160
    78  C          0.22768000       0.47318000       0.03559840
    79  H          0.71110000       0.50310000       0.03070000
    80  H          0.28890000       0.49690000       0.96930000
    81  C          0.75792000       0.47402000       0.88568160
    82  C          0.24208000       0.52598000       0.11431840
    83  H          0.68600000       0.41430000       0.89860000
    84  H          0.31400000       0.58570000       0.10140000
    85  C          0.59441190       0.50814180       0.68215140
    86  C          0.40558810       0.49185820       0.31784860
    87  C          0.62892000       0.62406180       0.60599160
    88  C          0.37108000       0.37593820       0.39400840
    89  H          0.71790000       0.63800000       0.56350000
    90  H          0.28210000       0.36200000       0.43650000
    91  C          0.53622000       0.71862000       0.59130160
    92  C          0.46378000       0.28138000       0.40869840
    93  H          0.56150000       0.79750000       0.54000000
    94  H          0.43850000       0.20250000       0.46000000
    95  C          0.40632000       0.69762000       0.65172170
    96  C          0.59368000       0.30238000       0.34827830
    97  C          0.36712000       0.58322000       0.72538170
    98  C          0.63288000       0.41678000       0.27461830
    99  H          0.27670000       0.56850000       0.76510000
   100  H          0.72330000       0.43150000       0.23490000
   101  C          0.46222000       0.48972000       0.74047160
   102  C          0.53778000       0.51028000       0.25952840
   103  H          0.43610000       0.41110000       0.79200000
   104  H          0.56390000       0.58890000       0.20800000
   105  C          0.69812000       0.97898000       0.64632160
   106  C          0.30188000       0.02102000       0.35367840
   107  H          0.60750000       0.95200000       0.65440000
   108  H          0.39250000       0.04800000       0.34560000
   109  C          0.80092000       0.89278000       0.64402180
   110  C          0.19908000       0.10722000       0.35597820
   111  H          0.78040000       0.80600000       0.65220000
   112  H          0.21960000       0.19400000       0.34780000
   113  C          0.93302000       0.93228000       0.62988170
   114  C          0.06698000       0.06772000       0.37011830
   115  H          0.00260000       0.87220000       0.62870000
   116  H         -0.00260000       0.12780000       0.37130000
   117  C          0.96532000       0.05828190       0.61738150
   118  C          0.03468000       0.94171810       0.38261850
   119  H          0.05650000       0.08550000       0.60590000
   120  H          0.94350000       0.91450000       0.39410000
   121  O          0.48152000       0.77892000       0.05629150
   122  O          0.51848000       0.22108000       0.94370850
   123  C          0.54083000       0.81152000       0.96567190
   124  C          0.45917000       0.18848000       0.03432810
   125  C          0.50693000       0.75373000       0.88742000
   126  C          0.49307000       0.24627000       0.11258000
   127  H          0.43270000       0.69090000       0.92170000
   128  H          0.56730000       0.30910000       0.07830000
   129  H          0.58630000       0.71190000       0.85720000
   130  H          0.41370000       0.28810000       0.14280000
   131  H          0.47940000       0.82030000       0.83190000
   132  H          0.52060000       0.17970000       0.16810000
   133  C          0.65093000       0.91013000       0.92882000
   134  C          0.34907000       0.08987000       0.07118000
   135  H          0.61800000       0.99010000       0.89020000
   136  H          0.38200000       0.00990000       0.10980000
   137  H          0.72730000       0.88230000       0.88280000
   138  H          0.27270000       0.11770000       0.11720000
   139  H          0.68000000       0.92300000      -0.01090000
   140  H          0.32000000       0.07700000       0.01090000
