data_SAVYAT
_symmetry_space_group_name_H-M    'P1'
_symmetry_Int_Tables_number       1
loop_
_symmetry_equiv_pos_site_id
_symmetry_equiv_pos_as_xyz
1 x,y,z
_cell_length_a                   10.396112
_cell_length_b                   11.947213
_cell_length_c                   14.822716
_cell_angle_alpha                101.2313
_cell_angle_beta                 104.0033
_cell_angle_gamma                93.3023
loop_
_atom_site_label
_atom_site_type_symbol
_atom_site_fract_x
_atom_site_fract_y
_atom_site_fract_z
     1  C          0.87603000       0.64423000       0.75742000
     2  C          0.12397000       0.35577000       0.24258000
     3  C          0.94644000       0.56433000       0.81932000
     4  C          0.05356000       0.43567000       0.18068000
     5  H          0.88272200       0.49764700       0.81572400
     6  H          0.11727800       0.50235300       0.18427600
     7  H          0.02138300       0.53514400       0.79483900
     8  H          0.97861700       0.46485600       0.20516100
     9  C         -0.00086000       0.62953000       0.92332000
    10  C          0.00086000       0.37047000       0.07668000
    11  H          0.04500300       0.57689700       0.96230800
    12  H          0.95499700       0.42310300       0.03769200
    13  C          0.09883000       0.73313000       0.92972000
    14  C          0.90117000       0.26687000       0.07028000
    15  H          0.13274700       0.77447900      -0.00304300
    16  H          0.86725300       0.22552100       0.00304300
    17  H          0.17552400       0.70588900       0.90651200
    18  H          0.82447600       0.29411100       0.09348800
    19  C          0.03113000       0.81543000       0.86962000
    20  C          0.96887000       0.18457000       0.13038000
    21  C          0.97843000       0.74633000       0.76592000
    22  C          0.02157000       0.25367000       0.23408000
    23  H          0.93653500       0.79779900       0.72523200
    24  H          0.06346500       0.20220100       0.27476800
    25  H          0.05434600       0.71760500       0.74239400
    26  H          0.94565400       0.28239500       0.25760600
    27  C          0.76103000       0.69023000       0.79783000
    28  C          0.23897000       0.30977000       0.20217000
    29  H          0.71726600       0.74389200       0.76010700
    30  H          0.28273400       0.25610800       0.23989300
    31  H          0.69370200       0.62557400       0.79243800
    32  H          0.30629800       0.37442600       0.20756200
    33  C          0.81374000       0.75244000       0.90243000
    34  C          0.18626000       0.24756000       0.09757000
    35  H          0.73746500       0.78003100       0.92754700
    36  H          0.26253500       0.21996900       0.07245300
    37  C          0.88364000       0.67204000       0.96193000
    38  C          0.11636000       0.32796000       0.03807000
    39  H          0.91733600       0.71325100       0.02921400
    40  H          0.08266400       0.28674900       0.97078600
    41  H          0.81963900       0.60596000       0.95914300
    42  H          0.18036100       0.39404000       0.04085700
    43  C          0.91324000       0.85613000       0.90893000
    44  C          0.08676000       0.14387000       0.09107000
    45  H          0.94687900       0.89780100       0.97604600
    46  H          0.05312100       0.10219900       0.02395400
    47  H          0.86759200       0.90952100       0.87172900
    48  H          0.13240800       0.09047900       0.12827100
    49  C          0.82283000       0.57913000       0.65392000
    50  C          0.17717000       0.42087000       0.34608000
    51  C          0.70623000       0.50293000       0.62532000
    52  C          0.29377000       0.49707000       0.37468000
    53  H          0.65947700       0.49194600       0.67116900
    54  H          0.34052300       0.50805400       0.32883100
    55  C          0.65653000       0.44253000       0.53152000
    56  C          0.34347000       0.55747000       0.46848000
    57  H          0.57659400       0.39177200       0.51471700
    58  H          0.42340600       0.60822800       0.48528300
    59  C          0.72203000       0.45533000       0.46172000
    60  C          0.27797000       0.54467000       0.53828000
    61  C          0.83733000       0.53143000       0.48942000
    62  C          0.16267000       0.46857000       0.51058000
    63  H          0.88326300       0.54301700       0.44327800
    64  H          0.11673700       0.45698300       0.55672200
    65  C          0.88723000       0.59123000       0.58342000
    66  C          0.11277000       0.40877000       0.41658000
    67  H          0.96726100       0.64169900       0.60001000
    68  H          0.03273900       0.35830100       0.39999000
    69  C          0.67173000       0.39363000       0.36032000
    70  C          0.32827000       0.60637000       0.63968000
    71  C          0.63823000       0.27423000       0.33392000
    72  C          0.36177000       0.72577000       0.66608000
    73  C          0.59533000       0.21953000       0.23842000
    74  C          0.40467000       0.78047000       0.76158000
    75  H          0.57156500       0.13875900       0.22080500
    76  H          0.42843500       0.86124100       0.77919500
    77  C          0.58723000       0.28353000       0.16882000
    78  C          0.41277000       0.71647000       0.83118000
    79  H          0.55696900       0.24558800       0.10364600
    80  H          0.44303100       0.75441200       0.89635400
    81  C          0.62213000       0.40103000       0.19202000
    82  C          0.37787000       0.59897000       0.80798000
    83  C          0.66353000       0.45443000       0.28812000
    84  C          0.33647000       0.54557000       0.71188000
    85  H          0.68700100       0.53516500       0.30509500
    86  H          0.31299900       0.46483500       0.69490500
    87  C          0.64545000       0.09443000       0.38233000
    88  C          0.35455000       0.90557000       0.61767000
    89  H          0.55543300       0.06271100       0.34388500
    90  H          0.44456700       0.93728900       0.65611500
    91  H          0.66589800       0.06401900       0.44043500
    92  H          0.33410200       0.93598100       0.55956500
    93  H          0.71022600       0.07247700       0.34562200
    94  H          0.28977400       0.92752300       0.65437800
    95  C          0.62424000       0.46653000       0.11442000
    96  C          0.37576000       0.53347000       0.88558000
    97  H          0.71667500       0.47505100       0.10800000
    98  H          0.28332500       0.52494900       0.89200000
    99  H          0.56805500       0.41979900       0.05341400
   100  H          0.43194500       0.58020100       0.94658600
   101  C          0.57653000       0.58443000       0.12942000
   102  C          0.42347000       0.41557000       0.87058000
   103  C          0.65583000       0.67993000       0.12552000
   104  C          0.34417000       0.32007000       0.87448000
   105  H          0.74309900       0.67083200       0.11819600
   106  H          0.25690100       0.32916800       0.88180400
   107  C          0.61223000       0.78873000       0.13202000
   108  C          0.38777000       0.21127000       0.86798000
   109  C          0.48403000       0.80153000       0.14462000
   110  C          0.51597000       0.19847000       0.85538000
   111  C          0.40353000       0.70673000       0.15002000
   112  C          0.59647000       0.29327000       0.84998000
   113  H          0.31688100       0.71549700       0.15885100
   114  H          0.68311900       0.28450300       0.84114900
   115  C          0.45014000       0.59983000       0.14232000
   116  C          0.54986000       0.40017000       0.85768000
   117  H          0.39459600       0.53578100       0.14601100
   118  H          0.60540400       0.46421900       0.85398900
   119  C          0.33604000       0.93313000       0.19123000
   120  C          0.66396000       0.06687000       0.80877000
   121  H          0.32896700       0.01580200       0.20384500
   122  H          0.67103300       0.98419800       0.79615500
   123  H          0.34855600       0.90610900       0.25080800
   124  H          0.65144400       0.09389100       0.74919200
   125  H          0.25411700       0.89270200       0.14570700
   126  H          0.74588300       0.10729800       0.85429300
   127  C          0.70193000       0.88883000       0.12942000
   128  C          0.29807000       0.11117000       0.87058000
   129  C          0.82894000       0.91403000       0.19093000
   130  C          0.17106000       0.08597000       0.80907000
   131  H          0.85827000       0.86638900       0.23456000
   132  H          0.14173000       0.13361100       0.76544000
   133  C          0.91344000       0.00723000       0.18973000
   134  C          0.08656000      -0.00723000       0.81027000
   135  H          0.00029500       0.02141100       0.23176600
   136  H         -0.00029500       0.97858900       0.76823400
   137  C          0.87413000       0.08093000       0.12812000
   138  C          0.12587000       0.91907000       0.87188000
   139  C          0.74823000       0.05363000       0.06512000
   140  C          0.25177000       0.94637000       0.93488000
   141  H          0.71924300       0.10056500       0.02087400
   142  H          0.28075700       0.89943500       0.97912600
   143  C          0.66373000       0.95943000       0.06532000
   144  C          0.33627000       0.04057000       0.93468000
   145  H          0.57858500       0.94277800       0.02094800
   146  H          0.42141500       0.05722200       0.97905200
   147  O          0.65233000       0.21682000       0.40720170
   148  O          0.34767000       0.78318000       0.59279830
   149  O          0.44702000       0.91062000       0.15247180
   150  O          0.55298000       0.08938000       0.84752820
   151  C          0.35974000       0.21533000       0.47803000
   152  C          0.64026000       0.78467000       0.52197000
   153  H          0.43412200       0.22527300       0.44834900
   154  H          0.56587800       0.77472700       0.55165100
   155  H          0.30441300       0.27914800       0.46956900
   156  H          0.69558700       0.72085200       0.53043100
   157  Br         0.25304400       0.07256300       0.41324300
   158  Br         0.74695600       0.92743700       0.58675700
   159  Br         0.43155500       0.22434400       0.61158300
   160  Br         0.56844500       0.77565600       0.38841700
   161  C          0.90737000       0.27565000       0.60334000
   162  C          0.09263000       0.72435000       0.39666000
   163  H          0.95320600       0.35464400       0.62120900
   164  H          0.04679400       0.64535600       0.37879100
   165  H          0.82030800       0.27590900       0.55769700
   166  H          0.17969200       0.72409100       0.44230300
   167  Br         0.01153600       0.17610500       0.54179400
   168  Br        -0.01153600       0.82389500       0.45820600
   169  Br         0.87649700       0.23392500       0.71298500
   170  Br         0.12350300       0.76607500       0.28701500
