data_SAWFOP
_symmetry_space_group_name_H-M    'P1'
_symmetry_Int_Tables_number       1
loop_
_symmetry_equiv_pos_site_id
_symmetry_equiv_pos_as_xyz
1 x,y,z
_cell_length_a                   5.507011
_cell_length_b                   15.0883
_cell_length_c                   23.9885
_cell_angle_alpha                90.0
_cell_angle_beta                 92.543
_cell_angle_gamma                90.0
loop_
_atom_site_label
_atom_site_type_symbol
_atom_site_fract_x
_atom_site_fract_y
_atom_site_fract_z
     1  S          0.68243800       0.36068300       0.10568200
     2  S          0.81756200       0.86068300       0.39431800
     3  S          0.31756200       0.63931700       0.89431800
     4  S          0.18243800       0.13931700       0.60568200
     5  S          0.22729800       0.40770300       0.95574800
     6  S          0.27270200       0.90770300       0.54425200
     7  S          0.77270200       0.59229700       0.04425200
     8  S          0.72729800       0.09229700       0.45574800
     9  S          0.66184800       0.28842300       0.97266800
    10  S          0.83815200       0.78842300       0.52733200
    11  S          0.33815200       0.71157700       0.02733200
    12  S          0.16184800       0.21157700       0.47266800
    13  S          0.24390800       0.46976300       0.07153200
    14  S          0.25609200       0.96976300       0.42846800
    15  S          0.75609200       0.53023700       0.92846800
    16  S          0.74390800       0.03023700       0.57153200
    17  C          0.46093000       0.39108120       0.05434700
    18  C          0.03907000       0.89108120       0.44565300
    19  C          0.53907000       0.60891880       0.94565300
    20  C          0.96093000       0.10891880       0.55434700
    21  C          0.45373000       0.36253110       0.00047800
    22  C          0.04627000       0.86253110       0.49952200
    23  C          0.54627000       0.63746890      -0.00047800
    24  C          0.95373000       0.13746890       0.50047800
    25  C          0.19774000       0.23741150       0.81374100
    26  C          0.30226000       0.73741150       0.68625900
    27  C          0.80226000       0.76258850       0.18625900
    28  C          0.69774000       0.26258850       0.31374100
    29  H          0.09412800       0.22974500       0.78138200
    30  H          0.40587200       0.72974500       0.71861800
    31  H          0.90587200       0.77025500       0.21861800
    32  H          0.59412800       0.27025500       0.28138200
    33  C          0.10263000       0.47410120       0.00582700
    34  C          0.39737000       0.97410120       0.49417300
    35  C          0.89737000       0.52589880       0.99417300
    36  C          0.60263000       0.02589880       0.50582700
    37  C          0.15844000       0.34345160       0.21855900
    38  C          0.34156000       0.84345160       0.28144100
    39  C          0.84156000       0.65654840       0.78144100
    40  C          0.65844000       0.15654840       0.71855900
    41  H          0.01960500       0.30773400       0.22423700
    42  H          0.48039500       0.80773400       0.27576300
    43  H         -0.01960500       0.69226600       0.77576300
    44  H          0.51960500       0.19226600       0.72423700
    45  C          0.30234000       0.20177130       0.90999200
    46  C          0.19766000       0.70177130       0.59000800
    47  C          0.69766000       0.79822870       0.09000800
    48  C          0.80234000       0.29822870       0.40999200
    49  H          0.27281200       0.16956400       0.94305500
    50  H          0.22718800       0.66956400       0.55694500
    51  H          0.72718800       0.83043600       0.05694500
    52  H          0.77281200       0.33043600       0.44305500
    53  C          0.30734000       0.32431130       0.17481800
    54  C          0.19266000       0.82431130       0.32518200
    55  C          0.69266000       0.67568870       0.82518200
    56  C          0.80734000       0.17568870       0.67481800
    57  H          0.27412900       0.27476100       0.15125100
    58  H          0.22587100       0.77476100       0.34874900
    59  H          0.72587100       0.72523900       0.84874900
    60  H          0.77412900       0.22523900       0.65125100
    61  C          0.49343000       0.26266120       0.90896200
    62  C          0.00657000       0.76266120       0.59103800
    63  C          0.50657000       0.73733880       0.09103800
    64  C         -0.00657000       0.23733880       0.40896200
    65  C          0.50703000       0.37919130       0.16604700
    66  C         -0.00703000       0.87919130       0.33395300
    67  C          0.49297000       0.62080870       0.83395300
    68  C          0.00703000       0.12080870       0.66604700
    69  C          0.15554000       0.18900150       0.86173100
    70  C          0.34446000       0.68900150       0.63826900
    71  C          0.84446000       0.81099850       0.13826900
    72  C          0.65554000       0.31099850       0.36173100
    73  H          0.02647000       0.14719000       0.86165500
    74  H          0.47353000       0.64719000       0.63834500
    75  H         -0.02647000       0.85281000       0.13834500
    76  H          0.52647000       0.35281000       0.36165500
    77  C          0.54194000       0.30922130       0.86033200
    78  C          0.95806000       0.80922130       0.63966800
    79  C          0.45806000       0.69077870       0.13966800
    80  C          0.04194000       0.19077870       0.36033200
    81  H          0.67611400       0.34869600       0.85963600
    82  H          0.82388600       0.84869600       0.64036400
    83  H          0.32388600       0.65130400       0.14036400
    84  H          0.17611400       0.15130400       0.35963600
    85  C          0.41465000       0.46647160       0.24605900
    86  C          0.08535000       0.96647160       0.25394100
    87  C          0.58535000       0.53352840       0.75394100
    88  C          0.91465000       0.03352840       0.74605900
    89  H          0.45291300       0.51376200       0.27106600
    90  H          0.04708700       0.01376200       0.22893400
    91  H          0.54708700       0.48623800       0.72893400
    92  H          0.95291300       0.98623800       0.77106600
    93  C          0.56294000       0.44987140       0.20173800
    94  C          0.93706000       0.94987140       0.29826200
    95  C          0.43706000       0.55012860       0.79826200
    96  C          0.06294000       0.05012860       0.70173800
    97  H          0.70031700       0.48622500       0.19588900
    98  H          0.79968300       0.98622500       0.30411100
    99  H          0.29968300       0.51377500       0.80411100
   100  H          0.20031700       0.01377500       0.69588900
   101  C          0.39014000       0.29685140       0.81280200
   102  C          0.10986000       0.79685140       0.68719800
   103  C          0.60986000       0.70314860       0.18719800
   104  C          0.89014000       0.20314860       0.31280200
   105  H          0.41849600       0.32916000       0.77973600
   106  H          0.08150400       0.82916000       0.72026400
   107  H          0.58150400       0.67084000       0.22026400
   108  H          0.91849600       0.17084000       0.27973600
   109  C          0.21094000       0.41435170       0.25398900
   110  C          0.28906000       0.91435170       0.24601100
   111  C          0.78906000       0.58564830       0.74601100
   112  C          0.71094000       0.08564830       0.75398900
   113  H          0.10757800       0.42722700       0.28362300
   114  H          0.39242200       0.92722700       0.21637700
   115  H          0.89242200       0.57277300       0.71637700
   116  H          0.60757800       0.07277300       0.78362300
   117  F          0.89122000       0.08965700       0.96406500
   118  F          0.60878000       0.58965700       0.53593500
   119  F          0.10878000       0.91034300       0.03593500
   120  F          0.39122000       0.41034300       0.46406500
   121  F          0.37042000       0.00320800       0.10810400
   122  F          0.12958000       0.50320800       0.39189600
   123  F          0.62958000      -0.00320800       0.89189600
   124  F          0.87042000       0.49679200       0.60810400
   125  N          0.16763000       0.19528120       0.05617800
   126  N          0.33237000       0.69528120       0.44382200
   127  N          0.83237000       0.80471880       0.94382200
   128  N          0.66763000       0.30471880       0.55617800
   129  C         -0.00516000       0.15433130       0.06502800
   130  C          0.50516000       0.65433130       0.43497200
   131  C          0.00516000       0.84566870       0.93497200
   132  C          0.49484000       0.34566870       0.56502800
   133  C          0.64613000       0.05312120       0.04044800
   134  C          0.85387000       0.55312120       0.45955200
   135  C          0.35387000       0.94687880       0.95955200
   136  C          0.14613000       0.44687880       0.54044800
   137  C          0.78544000       0.10527120       0.07947800
   138  C          0.71456000       0.60527120       0.42052200
   139  C          0.21456000       0.89472880       0.92052200
   140  C          0.28544000       0.39472880       0.57947800
   141  C          0.69643000       0.04566120       0.98319200
   142  C          0.80357000       0.54566120       0.51680800
   143  C          0.30357000       0.95433880       0.01680800
   144  C          0.19643000       0.45433880       0.48319200
   145  N          0.69514000       0.12881150       0.18316800
   146  N          0.80486000       0.62881150       0.31683200
   147  N          0.30486000       0.87118850       0.81683200
   148  N          0.19514000       0.37118850       0.68316800
   149  C          0.72704000       0.11610140       0.13661900
   150  C          0.77296000       0.61610140       0.36338100
   151  C          0.27296000       0.88389860       0.86338100
   152  C          0.22704000       0.38389860       0.63661900
   153  C          0.43834000       0.00319120       0.05459700
   154  C          0.06166000       0.50319120       0.44540300
   155  C          0.56166000      -0.00319120       0.94540300
   156  C          0.93834000       0.49680880       0.55459700
