data_SAWGEG
_symmetry_space_group_name_H-M    'P1'
_symmetry_Int_Tables_number       1
loop_
_symmetry_equiv_pos_site_id
_symmetry_equiv_pos_as_xyz
1 x,y,z
_cell_length_a                   10.97787
_cell_length_b                   13.83159
_cell_length_c                   15.37126
_cell_angle_alpha                77.6845
_cell_angle_beta                 87.8234
_cell_angle_gamma                72.8466
loop_
_atom_site_label
_atom_site_type_symbol
_atom_site_fract_x
_atom_site_fract_y
_atom_site_fract_z
     1  S          0.83808500       0.12442400       0.02827300
     2  S          0.16191500       0.87557600       0.97172700
     3  S          0.91476500       0.90013400       0.09523400
     4  S          0.08523500       0.09986600       0.90476600
     5  S          0.60255500       0.15993400       0.13895400
     6  S          0.39744500       0.84006600       0.86104600
     7  S          0.70067500       0.90731400       0.22314400
     8  S          0.29932500       0.09268600       0.77685600
     9  O          0.14091160       0.58594120       0.42240110
    10  O          0.85908840       0.41405880       0.57759890
    11  O          0.69489830       0.56998130       0.05346120
    12  O          0.30510170       0.43001870       0.94653880
    13  C          0.94653810       0.00476150       0.02611130
    14  C          0.05346190      -0.00476150       0.97388870
    15  C          0.74443810       0.07670160       0.11038130
    16  C          0.25556190       0.92329840       0.88961870
    17  C          0.78180820       0.97287160       0.14301130
    18  C          0.21819180       0.02712840       0.85698870
    19  C          0.83258000       0.80983160       0.28448130
    20  C          0.16742000       0.19016840       0.71551870
    21  C          0.63431810       0.28171160       0.11307140
    22  C          0.36568190       0.71828840       0.88692860
    23  C          0.03562000       0.65505170       0.37755140
    24  C          0.96438000       0.34494830       0.62244860
    25  C          0.92768000       0.83622170       0.32219140
    26  C          0.07232000       0.16377830       0.67780860
    27  H          0.92350000       0.90540000       0.31660000
    28  H          0.07650000       0.09460000       0.68340000
    29  C          0.02892000       0.75890170       0.36822140
    30  C          0.97108000       0.24109830       0.63177860
    31  H          0.09310000       0.77650000       0.39320000
    32  H          0.90690000       0.22350000       0.60680000
    33  C          0.93838000       0.62882170       0.34243150
    34  C          0.06162000       0.37117830       0.65756850
    35  H          0.94070000       0.55980000       0.35000000
    36  H          0.05930000       0.44020000       0.65000000
    37  C          0.62498000       0.33924170       0.02561140
    38  C          0.37502000       0.66075830       0.97438860
    39  H          0.60320000       0.31340000       0.97920000
    40  H          0.39680000       0.68660000       0.02080000
    41  C          0.83728000       0.70691170       0.29562140
    42  C          0.16272000       0.29308830       0.70437860
    43  H          0.77210000       0.68960000       0.27150000
    44  H          0.22790000       0.31040000       0.72850000
    45  C          0.66288000       0.32223170       0.18189150
    46  C          0.33712000       0.67776830       0.81810850
    47  H          0.66820000       0.28460000       0.24020000
    48  H          0.33180000       0.71540000       0.75980000
    49  C          0.67638000       0.47424170       0.07759160
    50  C          0.32362000       0.52575830       0.92240840
    51  C          0.68378000       0.41851180       0.16444160
    52  C          0.31622000       0.58148820       0.83555840
    53  H          0.70280000       0.44560000       0.21090000
    54  H          0.29720000       0.55440000       0.78910000
    55  C          0.64788000       0.43398180       0.00824160
    56  C          0.35212000       0.56601820      -0.00824160
    57  H          0.64420000       0.47120000       0.94990000
    58  H          0.35580000       0.52880000       0.05010000
    59  C          0.16063000       0.47876180       0.42355170
    60  C          0.83937000       0.52123820       0.57644830
    61  H          0.16480000       0.46850000       0.36350000
    62  H          0.83520000       0.53150000       0.63650000
    63  H          0.09110000       0.45730000       0.45270000
    64  H          0.90890000       0.54270000       0.54730000
    65  H          0.23900000       0.43850000       0.45520000
    66  H          0.76100000       0.56150000       0.54480000
    67  C          0.70557000       0.61962000       0.12342000
    68  C          0.29443000       0.38038000       0.87658000
    69  H          0.71810000       0.68580000       0.09880000
    70  H          0.28190000       0.31420000       0.90120000
    71  H          0.77700000       0.57750000       0.16190000
    72  H          0.22300000       0.42250000       0.83810000
    73  H          0.62900000       0.62920000       0.15700000
    74  H          0.37100000       0.37080000       0.84300000
    75  S          0.66762500       0.89253600       0.95702400
    76  S          0.33237500       0.10746400       0.04297600
    77  S          0.56570500       0.11834400       0.91035400
    78  S          0.43429500       0.88165600       0.08964600
    79  S          0.77962600       0.14220500       0.78773400
    80  S          0.22037400       0.85779500       0.21226600
    81  S          0.88986600       0.88925500       0.83507400
    82  S          0.11013400       0.11074500       0.16492600
    83  O          0.83483160       0.47611870       0.83607110
    84  O          0.16516840       0.52388130       0.16392890
    85  O          0.36901170       0.48554130       0.57902120
    86  O          0.63098830       0.51445870       0.42097880
    87  C          0.55052000       0.00256160       0.97173130
    88  C          0.44948000      -0.00256160       0.02826870
    89  C          0.74874190       0.95787820       0.87681140
    90  C          0.25125810       0.04212180       0.12318860
    91  C          0.70142000       0.06267180       0.85535140
    92  C          0.29858000       0.93732820       0.14464860
    93  C          0.65062000       0.24766180       0.73198140
    94  C          0.34938000       0.75233820       0.26801860
    95  C          0.85272000       0.56811820       0.84124150
    96  C          0.14728000       0.43188180       0.15875850
    97  C          0.56292000       0.22922190       0.68001150
    98  C          0.43708000       0.77077810       0.31998850
    99  H          0.56710000       0.16160000       0.67800000
   100  H          0.43290000       0.83840000       0.32200000
   101  C          0.86902000       0.76545810       0.84092140
   102  C          0.13098000       0.23454190       0.15907860
   103  C          0.64392000       0.34901190       0.73340160
   104  C          0.35608000       0.65098810       0.26659840
   105  H          0.70220000       0.36200000       0.76840000
   106  H          0.29780000       0.63800000       0.23160000
   107  C          0.46382000       0.41207180       0.63191150
   108  C          0.53618000       0.58792820       0.36808850
   109  C          0.55102000       0.43161190       0.68304150
   110  C          0.44898000       0.56838810       0.31695850
   111  H          0.54770000       0.49940000       0.68380000
   112  H          0.45230000       0.50060000       0.31620000
   113  C          0.75552000       0.65632810       0.80197160
   114  C          0.24448000       0.34367190       0.19802840
   115  H          0.68450000       0.64910000       0.77600000
   116  H          0.31550000       0.35090000       0.22400000
   117  C          0.96532000       0.67718000       0.88014150
   118  C          0.03468000       0.32282000       0.11985850
   119  H          0.03590000       0.68450000       0.90670000
   120  H          0.96410000       0.31550000       0.09330000
   121  C          0.46942000       0.31071190       0.63133160
   122  C          0.53058000       0.68928810       0.36866840
   123  H          0.40960000       0.29760000       0.59780000
   124  H          0.59040000       0.70240000       0.40220000
   125  C          0.95802000       0.57968000       0.88028150
   126  C          0.04198000       0.42032000       0.11971850
   127  H          0.02330000       0.52170000       0.90640000
   128  H          0.97670000       0.47830000       0.09360000
   129  C          0.76412000       0.75284810       0.80147160
   130  C          0.23588000       0.24715190       0.19852840
   131  H          0.69930000       0.81080000       0.77450000
   132  H          0.30070000       0.18920000       0.22550000
   133  C          0.36353000       0.59125190       0.56865170
   134  C          0.63647000       0.40874810       0.43134830
   135  H          0.29740000       0.63320000       0.52580000
   136  H          0.70260000       0.36680000       0.47420000
   137  H          0.44400000       0.60040000       0.54830000
   138  H          0.55600000       0.39960000       0.45170000
   139  H          0.34550000       0.61160000       0.62480000
   140  H          0.65450000       0.38840000       0.37520000
   141  C          0.92953000       0.38248000       0.87596180
   142  C          0.07047000       0.61752000       0.12403820
   143  H          0.00990000       0.38120000       0.84860000
   144  H          0.99010000       0.61880000       0.15140000
   145  H          0.90470000       0.32410000       0.86750000
   146  H          0.09530000       0.67590000       0.13250000
   147  H          0.93750000       0.37950000       0.93850000
   148  H          0.06250000       0.62050000       0.06150000
   149  F          0.37307120       0.13966900       0.56431800
   150  F          0.62692880       0.86033100       0.43568200
   151  F          0.17645120       0.25688900       0.46191800
   152  F          0.82354880       0.74311100       0.53808200
   153  F          0.28726130       0.83941900       0.51323900
   154  F          0.71273870       0.16058100       0.48676100
   155  F          0.08779130       0.95687900       0.41429900
   156  F          0.91220870       0.04312100       0.58570100
   157  N          0.59463190       0.98308850       0.68586130
   158  N          0.40536810       0.01691150       0.31413870
   159  N          0.85758000       0.10872170       0.30536140
   160  N          0.14242000       0.89127830       0.69463860
   161  N          0.53112000       0.72067840       0.63443150
   162  N          0.46888000       0.27932160       0.36556850
   163  C          0.44692000       0.92000840       0.60034140
   164  C          0.55308000       0.07999160       0.39965860
   165  N          0.93628000       0.37671160       0.33798140
   166  N          0.06372000       0.62328840       0.66201860
   167  C          0.12042000       0.11385160       0.43211130
   168  C          0.87958000       0.88614840       0.56788870
   169  C          0.34082000       0.98258840       0.54532130
   170  C          0.65918000       0.01741160       0.45467870
   171  C          0.26092000       0.94296840       0.50222130
   172  C          0.73908000       0.05703160       0.49777870
   173  C          0.52492000       0.95950830       0.64594140
   174  C          0.47508000       0.04049170       0.35405860
   175  C          0.15842000       0.00403170       0.44988140
   176  C          0.84158000      -0.00403170       0.55011860
   177  C          0.30382000       0.09251170       0.52709140
   178  C          0.69618000       0.90748830       0.47290860
   179  C          0.20182000       0.15415160       0.47388140
   180  C          0.79818000       0.84584840       0.52611860
   181  C          0.01192000       0.17677170       0.37913140
   182  C          0.98808000       0.82322830       0.62086860
   183  C          0.92878000       0.13655180       0.33943150
   184  C          0.07122000       0.86344820       0.66056850
   185  C          0.48902000       0.80967820       0.61699150
   186  C          0.51098000       0.19032180       0.38300850
   187  C          0.97418000       0.28747180       0.35875150
   188  C          0.02582000       0.71252820       0.64124850
