data_SAWGAC
_symmetry_space_group_name_H-M    'P1'
_symmetry_Int_Tables_number       1
loop_
_symmetry_equiv_pos_site_id
_symmetry_equiv_pos_as_xyz
1 x,y,z
_cell_length_a                   8.66203
_cell_length_b                   11.99024
_cell_length_c                   24.36641
_cell_angle_alpha                88.7513
_cell_angle_beta                 81.0023
_cell_angle_gamma                76.9653
loop_
_atom_site_label
_atom_site_type_symbol
_atom_site_fract_x
_atom_site_fract_y
_atom_site_fract_z
     1  S          0.33358600       0.93654500       0.06227200
     2  S          0.66641400       0.06345500       0.93772800
     3  S          0.40683600       0.16180500       0.04484200
     4  S          0.59316400       0.83819500       0.95515800
     5  S          0.07466600       0.01939500       0.16047200
     6  S          0.92533400       0.98060500       0.83952800
     7  S          0.17037700       0.26803500       0.14395300
     8  S          0.82962300       0.73196500       0.85604700
     9  C          0.44412000       0.02127170       0.02308800
    10  C          0.55588000       0.97872830       0.97691200
    11  C          0.22912000       0.04408180       0.10978800
    12  C          0.77088000       0.95591820       0.89021200
    13  C          0.26492000       0.14818180       0.10210800
    14  C          0.73508000       0.85181820       0.89789200
    15  C          0.15482000       0.87782810       0.18179800
    16  C          0.84518000       0.12217190       0.81820200
    17  C          0.05563000       0.80018000       0.18612900
    18  C          0.94437000       0.19982000       0.81387100
    19  H          0.95270000       0.82270000       0.17720000
    20  H          0.04730000       0.17730000       0.82280000
    21  C          0.30823000       0.84588000       0.19543900
    22  C          0.69177000       0.15412000       0.80456100
    23  H          0.37250000       0.89880000       0.19340000
    24  H          0.62750000       0.10120000       0.80660000
    25  C          0.31243000       0.35527190       0.12792100
    26  C          0.68757000       0.64472810       0.87207900
    27  C          0.27743000       0.44952000       0.09463100
    28  C          0.72257000       0.55048000       0.90536900
    29  H          0.18190000       0.46550000       0.08010000
    30  H          0.81810000       0.53450000       0.91990000
    31  C          0.36513000       0.73528000       0.21194100
    32  C          0.63487000       0.26472000       0.78805900
    33  C          0.11003000       0.68938000       0.20374100
    34  C          0.88997000       0.31062000       0.79625900
    35  C          0.26403000       0.65878000       0.21601100
    36  C          0.73597000       0.34122000       0.78398900
    37  H          0.30190000       0.58440000       0.22740000
    38  H          0.69810000       0.41560000       0.77260000
    39  C          0.45423000       0.32912000       0.14989100
    40  C          0.54577000       0.67088000       0.85010900
    41  H          0.47540000       0.26560000       0.17240000
    42  H          0.52460000       0.73440000       0.82760000
    43  C          0.38504000       0.52032000       0.08286110
    44  C          0.61496000       0.47968000       0.91713890
    45  C          0.52744000       0.49132000       0.10483120
    46  C          0.47256000       0.50868000       0.89516880
    47  H          0.60120000       0.53710000       0.09660000
    48  H          0.39880000       0.46290000       0.90340000
    49  C          0.56463000       0.39732000       0.13838120
    50  C          0.43537000       0.60268000       0.86161880
    51  C          0.00404000       0.60408000       0.20804130
    52  C         -0.00404000       0.39592000       0.79195870
    53  H          0.90790000       0.63260000       0.23380000
    54  H          0.09210000       0.36740000       0.76620000
    55  H          0.06030000       0.53240000       0.22090000
    56  H          0.93970000       0.46760000       0.77910000
    57  H          0.97660000       0.59310000       0.17220000
    58  H          0.02340000       0.40690000       0.82780000
    59  C          0.53433000       0.69827000       0.22488130
    60  C          0.46567000       0.30173000       0.77511870
    61  H          0.60420000       0.66150000       0.19270000
    62  H          0.39580000       0.33850000       0.80730000
    63  H          0.53620000       0.64570000       0.25520000
    64  H          0.46380000       0.35430000       0.74480000
    65  H          0.57000000       0.76420000       0.23490000
    66  H          0.43000000       0.23580000       0.76510000
    67  C          0.72124000       0.36943000       0.16145160
    68  C          0.27876000       0.63057000       0.83854840
    69  H          0.71300000       0.41790000       0.19310000
    70  H          0.28700000       0.58210000       0.80690000
    71  H          0.80650000       0.38190000       0.13340000
    72  H          0.19350000       0.61810000       0.86660000
    73  H          0.74350000       0.29080000       0.17250000
    74  H          0.25650000       0.70920000       0.82750000
    75  C          0.34515000       0.62553000       0.04856160
    76  C          0.65485000       0.37447000       0.95143840
    77  H          0.28940000       0.60960000       0.01960000
    78  H          0.71060000       0.39040000       0.98040000
    79  H          0.44230000       0.64710000       0.03240000
    80  H          0.55770000       0.35290000       0.96760000
    81  H          0.27810000       0.68690000       0.07180000
    82  H          0.72190000       0.31310000       0.92820000
    83  S          0.95774300       0.65590500       0.45212200
    84  S          0.04225700       0.34409500       0.54787800
    85  S          0.89192300       0.43082500       0.43765200
    86  S          0.10807700       0.56917500       0.56234800
    87  S          0.73089300       0.50429500       0.33676200
    88  S          0.26910700       0.49570500       0.66323800
    89  S          0.82403200       0.75112500       0.34971300
    90  S          0.17596800       0.24887500       0.65028700
    91  C          0.96698000       0.51884180       0.47637800
    92  C          0.03302000       0.48115820       0.52362200
    93  C          0.83778000       0.53289180       0.38798800
    94  C          0.16222000       0.46710820       0.61201200
    95  C          0.87088000       0.63694180       0.39427800
    96  C          0.12912000       0.36305820       0.60572200
    97  C          0.82247000       0.35836190       0.31960800
    98  C          0.17753000       0.64163810       0.68039200
    99  C          0.98887000       0.32002000       0.30886800
   100  C          0.01113000       0.67998000       0.69113200
   101  H          0.05470000       0.37100000       0.31010000
   102  H          0.94530000       0.62900000       0.68990000
   103  C          0.72307000       0.28412000       0.31500900
   104  C          0.27693000       0.71588000       0.68499100
   105  H          0.61240000       0.31120000       0.32140000
   106  H          0.38760000       0.68880000       0.67860000
   107  C          0.93187000       0.84652190       0.37300900
   108  C          0.06813000       0.15347810       0.62699100
   109  C          0.78787000       0.16982000       0.30084900
   110  C          0.21213000       0.83018000       0.69915100
   111  C          0.05543000       0.20572000       0.29633800
   112  C          0.94457000       0.79428000       0.70366200
   113  C          0.09723000       0.82722000       0.35746100
   114  C          0.90277000       0.17278000       0.64253900
   115  H          0.15190000       0.76520000       0.33460000
   116  H          0.84810000       0.23480000       0.66540000
   117  C          0.84827000       0.94022000       0.40586100
   118  C          0.15173000       0.05978000       0.59413900
   119  H          0.73780000       0.95170000       0.41600000
   120  H          0.26220000       0.04830000       0.58400000
   121  C          0.95357000       0.13182000       0.29282900
   122  C          0.04643000       0.86818000       0.70717100
   123  H         -0.00170000       0.05470000       0.28490000
   124  H          0.00170000       0.94530000       0.71510000
   125  C          0.92867000       0.01682000       0.42364100
   126  C          0.07133000       0.98318000       0.57635900
   127  C          0.18023000       0.90152000       0.37645110
   128  C          0.81977000       0.09848000       0.62354890
   129  C          0.09364000      -0.00508000       0.40902110
   130  C          0.90636000       0.00508000       0.59097890
   131  H          0.14880000       0.04490000       0.42160000
   132  H          0.85120000       0.95510000       0.57840000
   133  C          0.23513000       0.16272000       0.28644110
   134  C          0.76487000       0.83728000       0.71355890
   135  H          0.28500000       0.22460000       0.27420000
   136  H          0.71500000       0.77540000       0.72580000
   137  H          0.26430000       0.10330000       0.25850000
   138  H          0.73570000       0.89670000       0.74150000
   139  H          0.27030000       0.13280000       0.32040000
   140  H          0.72970000       0.86720000       0.67960000
   141  C          0.68057000       0.08882000       0.29459120
   142  C          0.31943000       0.91118000       0.70540880
   143  H          0.60350000       0.09170000       0.32770000
   144  H          0.39650000       0.90830000       0.67230000
   145  H          0.74440000       0.01230000       0.28860000
   146  H          0.25560000       0.98770000       0.71140000
   147  H          0.62560000       0.11110000       0.26340000
   148  H          0.37440000       0.88890000       0.73660000
   149  C          0.83726000       0.12282000       0.45643130
   150  C          0.16274000       0.87718000       0.54356870
   151  H          0.80210000       0.18270000       0.43140000
   152  H          0.19790000       0.81730000       0.56860000
   153  H          0.90570000       0.14720000       0.47890000
   154  H          0.09430000       0.85280000       0.52110000
   155  H          0.74570000       0.10610000       0.48000000
   156  H          0.25430000       0.89390000       0.52000000
   157  C          0.36043000       0.88083000       0.36126150
   158  C          0.63957000       0.11917000       0.63873850
   159  H          0.40760000       0.80170000       0.36690000
   160  H          0.59240000       0.19830000       0.63310000
   161  H          0.40050000       0.92820000       0.38430000
   162  H          0.59950000       0.07180000       0.61570000
   163  H          0.38750000       0.89930000       0.32300000
   164  H          0.61250000       0.10070000       0.67700000
   165  F          0.48347170       0.27876120       0.51574600
   166  F          0.51652830       0.72123880       0.48425400
   167  F          0.61679170       0.37557120       0.58439600
   168  F          0.38320830       0.62442880       0.41560400
   169  C          0.49103000       0.38875190       0.50692100
   170  C          0.50897000       0.61124810       0.49307900
   171  C          0.55823000       0.43932000       0.54310100
   172  C          0.44177000       0.56068000       0.45689900
   173  C          0.42912000       0.44522000       0.46050900
   174  C          0.57088000       0.55478000       0.53949100
   175  C          0.36233000       0.39132000       0.42198100
   176  C          0.63767000       0.60868000       0.57801900
   177  N          0.25703000       0.48722000       0.33565110
   178  N          0.74297000       0.51278000       0.66434890
   179  C          0.30503000       0.44773000       0.37484110
   180  C          0.69497000       0.55227000       0.62515890
   181  C          0.35154000       0.27523000       0.42556120
   182  C          0.64846000       0.72477000       0.57443880
   183  N          0.34165000       0.18193000       0.42618130
   184  N          0.65835000       0.81807000       0.57381870
   185  F          0.19876180       0.85790870       0.92149400
   186  F          0.80123820       0.14209130       0.07850600
   187  F         -0.00115820       0.77543870       0.99319300
   188  F          0.00115820       0.22456130       0.00680700
   189  N          0.59273000       0.02092000       0.16229110
   190  N          0.40727000       0.97908000       0.83770890
   191  C          0.10023000       0.92978000       0.95992900
   192  C          0.89977000       0.07022000       0.04007100
   193  C         -0.00327000       0.88738000      -0.00230110
   194  C          0.00327000       0.11262000       0.00230110
   195  C          0.88993000       0.95368000       0.04061100
   196  C          0.11007000       0.04632000       0.95938900
   197  C          0.68003000       0.97407000       0.12534120
   198  C          0.31997000       0.02593000       0.87465880
   199  C          0.78403000       0.90868000       0.08074110
   200  C          0.21597000       0.09132000       0.91925890
   201  C          0.77214000       0.79277000       0.08083130
   202  C          0.22786000       0.20723000       0.91916870
   203  N          0.75795000       0.70027000       0.08354140
   204  N          0.24205000       0.29973000       0.91645860
