data_SAWQOY
_symmetry_space_group_name_H-M    'P1'
_symmetry_Int_Tables_number       1
loop_
_symmetry_equiv_pos_site_id
_symmetry_equiv_pos_as_xyz
1 x,y,z
_cell_length_a                   6.76454
_cell_length_b                   26.112617
_cell_length_c                   10.39547
_cell_angle_alpha                90.0
_cell_angle_beta                 106.6743
_cell_angle_gamma                90.0
loop_
_atom_site_label
_atom_site_type_symbol
_atom_site_fract_x
_atom_site_fract_y
_atom_site_fract_z
     1  Br         0.72120300       0.16939180       0.61445200
     2  Br         0.77879700       0.66939180       0.88554800
     3  Br         0.27879700       0.83060820       0.38554800
     4  Br         0.22120300       0.33060820       0.11445200
     5  Br         0.64307400       0.04406990       0.86502800
     6  Br         0.85692600       0.54406990       0.63497200
     7  Br         0.35692600       0.95593010       0.13497200
     8  Br         0.14307400       0.45593010       0.36502800
     9  Br         0.72621300       0.24642880       0.07333300
    10  Br         0.77378700       0.74642880       0.42666700
    11  Br         0.27378700       0.75357120       0.92666700
    12  Br         0.22621300       0.25357120       0.57333300
    13  Br         0.24703300       0.11650580       0.52479200
    14  Br         0.25296700       0.61650580       0.97520800
    15  Br         0.75296700       0.88349420       0.47520800
    16  Br         0.74703300       0.38349420       0.02479200
    17  O          0.07572000       0.04109600       0.71463170
    18  O          0.42428000       0.54109600       0.78536830
    19  O          0.92428000       0.95890400       0.28536830
    20  O          0.57572000       0.45890400       0.21463170
    21  O          0.81143000       0.19011600       0.33371170
    22  O          0.68857000       0.69011600       0.16628830
    23  O          0.18857000       0.80988400       0.66628830
    24  O          0.31143000       0.30988400       0.83371170
    25  O          0.50732000       0.03501600       0.35024160
    26  O         -0.00732000       0.53501600       0.14975840
    27  O          0.49268000       0.96498400       0.64975840
    28  O          0.00732000       0.46498400       0.85024160
    29  N          0.76753000       0.02729700       0.54888190
    30  N          0.73247000       0.52729700       0.95111810
    31  N          0.23247000       0.97270300       0.45111810
    32  N          0.26753000       0.47270300       0.04888190
    33  H          0.70890000       0.00530000       0.59060000
    34  H          0.79110000       0.50530000       0.90940000
    35  H          0.29110000      -0.00530000       0.40940000
    36  H          0.20890000       0.49470000       0.09060000
    37  C          0.70293000       0.14243800      -0.00972000
    38  C          0.79707000       0.64243800       0.50972000
    39  C          0.29707000       0.85756200       0.00972000
    40  C          0.20293000       0.35756200       0.49028000
    41  H          0.67560000       0.15590000       0.90200000
    42  H          0.82440000       0.65590000       0.59800000
    43  H          0.32440000       0.84410000       0.09800000
    44  H          0.17560000       0.34410000       0.40200000
    45  C          0.70723000       0.08981800       0.01222000
    46  C          0.79277000       0.58981800       0.48778000
    47  C          0.29277000       0.91018200      -0.01222000
    48  C          0.20723000       0.41018200       0.51222000
    49  C          0.75003000       0.06987800       0.14022000
    50  C          0.74997000       0.56987800       0.35978000
    51  C          0.24997000       0.93012200       0.85978000
    52  C          0.25003000       0.43012200       0.64022000
    53  H          0.75120000       0.03380000       0.15290000
    54  H          0.74880000       0.53380000       0.34710000
    55  H          0.24880000       0.96620000       0.84710000
    56  H          0.25120000       0.46620000       0.65290000
    57  C          0.79163000       0.10256800       0.25132000
    58  C          0.70837000       0.60256800       0.24868000
    59  C          0.20837000       0.89743200       0.74868000
    60  C          0.29163000       0.39743200       0.75132000
    61  C          0.83453000       0.07945700       0.38502000
    62  C          0.66547000       0.57945700       0.11498000
    63  C          0.16547000       0.92054300       0.61498000
    64  C          0.33453000       0.42054300       0.88502000
    65  C         -0.00177000       0.08187700       0.49432000
    66  C          0.50177000       0.58187700       0.00568000
    67  C          0.00177000       0.91812300       0.50568000
    68  C          0.49823000       0.41812300      -0.00568000
    69  C          0.96083000       0.04885800       0.60382000
    70  C          0.53917000       0.54885800       0.89618000
    71  C          0.03917000       0.95114200       0.39618000
    72  C          0.46083000       0.45114200       0.10382000
    73  C          0.73963000       0.17484800       0.10102000
    74  C          0.76037000       0.67484800       0.39898000
    75  C          0.26037000       0.82515200       0.89898000
    76  C          0.23963000       0.32515200       0.60102000
    77  C          0.78263000       0.15597800       0.23232000
    78  C          0.71737000       0.65597800       0.26768000
    79  C          0.21737000       0.84402200       0.76768000
    80  C          0.28263000       0.34402200       0.73232000
    81  C          0.67983000       0.04494700       0.42062000
    82  C          0.82017000       0.54494700       0.07938000
    83  C          0.32017000       0.95505300       0.57938000
    84  C          0.17983000       0.45505300       0.92062000
    85  N          0.71683000       0.29051700       0.56172000
    86  N          0.78317000       0.79051700       0.93828000
    87  N          0.28317000       0.70948300       0.43828000
    88  N          0.21683000       0.20948300       0.06172000
    89  H          0.71770000       0.25750000       0.57850000
    90  H          0.78230000       0.75750000       0.92150000
    91  H          0.28230000       0.74250000       0.42150000
    92  H          0.21770000       0.24250000       0.07850000
    93  C          0.68104000       0.30583900       0.43373000
    94  C          0.81896000       0.80583900       0.06627000
    95  C          0.31896000       0.69416100       0.56627000
    96  C          0.18104000       0.19416100       0.93373000
    97  H          0.65780000       0.28130000       0.36350000
    98  H          0.84220000       0.78130000       0.13650000
    99  H          0.34220000       0.71870000       0.63650000
   100  H          0.15780000       0.21870000       0.86350000
   101  C          0.67814000       0.35738900       0.40523000
   102  C          0.82186000       0.85738900       0.09477000
   103  C          0.32186000       0.64261100       0.59477000
   104  C          0.17814000       0.14261100       0.90523000
   105  H          0.65130000       0.36890000       0.31520000
   106  H          0.84870000       0.86890000       0.18480000
   107  H          0.34870000       0.63110000       0.68480000
   108  H          0.15130000       0.13110000       0.81520000
   109  C          0.71503000       0.39221900       0.51063000
   110  C          0.78497000       0.89221900      -0.01063000
   111  C          0.28497000       0.60778100       0.48937000
   112  C          0.21503000       0.10778100       0.01063000
   113  H          0.71480000       0.42790000       0.49280000
   114  H          0.78520000       0.92790000       0.00720000
   115  H          0.28520000       0.57210000       0.50720000
   116  H          0.21480000       0.07210000      -0.00720000
   117  C          0.75124000       0.32324100       0.66483000
   118  C          0.74876000       0.82324100       0.83517000
   119  C          0.24876000       0.67675900       0.33517000
   120  C          0.25124000       0.17675900       0.16483000
   121  H          0.77490000       0.31080000       0.75380000
   122  H          0.72510000       0.81080000       0.74620000
   123  H          0.22510000       0.68920000       0.24620000
   124  H          0.27490000       0.18920000       0.25380000
   125  C          0.75214000       0.37514100       0.64103000
   126  C          0.74786000       0.87514100       0.85897000
   127  C          0.24786000       0.62485900       0.35897000
   128  C          0.25214000       0.12485900       0.14103000
   129  H          0.77780000       0.39880000       0.71330000
   130  H          0.72220000       0.89880000       0.78670000
   131  H          0.22220000       0.60120000       0.28670000
   132  H          0.27780000       0.10120000       0.21330000
