data_SAYNEM
_symmetry_space_group_name_H-M    'P1'
_symmetry_Int_Tables_number       1
loop_
_symmetry_equiv_pos_site_id
_symmetry_equiv_pos_as_xyz
1 x,y,z
_cell_length_a                   5.1571
_cell_length_b                   14.2932
_cell_length_c                   15.3183
_cell_angle_alpha                90.0
_cell_angle_beta                 103.243
_cell_angle_gamma                90.0
loop_
_atom_site_label
_atom_site_type_symbol
_atom_site_fract_x
_atom_site_fract_y
_atom_site_fract_z
     1  Cl         0.33005180       0.40835600       0.07249600
     2  Cl         0.66994820       0.90835600       0.42750400
     3  Cl         0.66994820       0.59164400       0.92750400
     4  Cl         0.33005180       0.09164400       0.57249600
     5  O          0.79294000       0.33523120       0.20955140
     6  O          0.20706000       0.83523120       0.29044860
     7  O          0.20706000       0.66476880       0.79044860
     8  O          0.79294000       0.16476880       0.70955140
     9  N          0.15264000       0.02857160       0.29497150
    10  N          0.84736000       0.52857160       0.20502850
    11  N          0.84736000       0.97142840       0.70502850
    12  N          0.15264000       0.47142840       0.79497150
    13  H          0.21260000       0.97270000       0.30620000
    14  H          0.78740000       0.47270000       0.19380000
    15  H          0.78740000       0.02730000       0.69380000
    16  H          0.21260000       0.52730000       0.80620000
    17  N          0.91684000       0.04967150       0.23886150
    18  N          0.08316000       0.54967150       0.26113850
    19  N          0.08316000       0.95032850       0.76113850
    20  N          0.91684000       0.45032850       0.73886150
    21  N          0.67214000       0.18374150       0.18887150
    22  N          0.32786000       0.68374150       0.31112850
    23  N          0.32786000       0.81625850       0.81112850
    24  N          0.67214000       0.31625850       0.68887150
    25  H          0.54790000       0.14690000       0.16160000
    26  H          0.45210000       0.64690000       0.33840000
    27  H          0.45210000       0.85310000       0.83840000
    28  H          0.54790000       0.35310000       0.66160000
    29  C          0.90105000       0.14225190       0.24120170
    30  C          0.09895000       0.64225190       0.25879830
    31  C          0.09895000       0.85774810       0.75879830
    32  C          0.90105000       0.35774810       0.74120170
    33  C          0.12455000       0.18132000       0.29761190
    34  C          0.87545000       0.68132000       0.20238810
    35  C          0.87545000       0.81868000       0.70238810
    36  C          0.12455000       0.31868000       0.79761190
    37  H          0.16110000       0.24420000       0.31020000
    38  H          0.83890000       0.74420000       0.18980000
    39  H          0.83890000       0.75580000       0.68980000
    40  H          0.16110000       0.25580000       0.81020000
    41  C          0.27926000       0.10493190       0.33042000
    42  C          0.72074000       0.60493190       0.16958000
    43  C          0.72074000       0.89506810       0.66958000
    44  C          0.27926000       0.39506810       0.83042000
    45  H          0.44430000       0.10670000       0.37060000
    46  H          0.55570000       0.60670000       0.12940000
    47  H          0.55570000       0.89330000       0.62940000
    48  H          0.44430000       0.39330000       0.87060000
    49  C          0.62915000       0.27628190       0.17744190
    50  C          0.37085000       0.77628190       0.32255810
    51  C          0.37085000       0.72371810       0.82255810
    52  C          0.62915000       0.22371810       0.67744190
    53  C          0.35285000       0.29862000       0.12292000
    54  C          0.64715000       0.79862000       0.37708000
    55  C          0.64715000       0.70138000       0.87708000
    56  C          0.35285000       0.20138000       0.62292000
    57  H          0.22840000       0.29570000       0.16170000
    58  H          0.77160000       0.79570000       0.33830000
    59  H          0.77160000       0.70430000       0.83830000
    60  H          0.22840000       0.20430000       0.66170000
    61  H          0.30070000       0.25140000       0.07680000
    62  H          0.69930000       0.75140000       0.42320000
    63  H          0.69930000       0.74860000       0.92320000
    64  H          0.30070000       0.24860000       0.57680000
    65  Cl         0.70711170       0.27349600       0.45548600
    66  Cl         0.29288830       0.77349600       0.04451400
    67  Cl         0.29288830       0.72650400       0.54451400
    68  Cl         0.70711170       0.22650400       0.95548600
    69  O          0.65824000       0.53852150       0.40579150
    70  O          0.34176000       0.03852150       0.09420850
    71  O          0.34176000       0.46147850       0.59420850
    72  O          0.65824000       0.96147850       0.90579150
    73  O          0.39774000       0.41989130       0.34646150
    74  O          0.60226000       0.91989130       0.15353850
    75  O          0.60226000       0.58010870       0.65353850
    76  O          0.39774000       0.08010870       0.84646150
    77  H          0.29670000       0.46190000       0.32340000
    78  H          0.70330000       0.96190000       0.17660000
    79  H          0.70330000       0.53810000       0.67660000
    80  H          0.29670000       0.03810000       0.82340000
    81  C          0.81536000       0.38682000       0.44422000
    82  C          0.18464000       0.88682000       0.05578000
    83  C          0.18464000       0.61318000       0.55578000
    84  C          0.81536000       0.11318000       0.94422000
    85  H          0.89230000       0.41090000       0.50370000
    86  H          0.10770000       0.91090000      -0.00370000
    87  H          0.10770000       0.58910000       0.49630000
    88  H          0.89230000       0.08910000       0.00370000
    89  H          0.95670000       0.38410000       0.41200000
    90  H          0.04330000       0.88410000       0.08800000
    91  H          0.04330000       0.61590000       0.58800000
    92  H          0.95670000       0.11590000       0.91200000
    93  C          0.61025000       0.45592000       0.39699190
    94  C          0.38975000       0.95592000       0.10300810
    95  C          0.38975000       0.54408000       0.60300810
    96  C          0.61025000       0.04408000       0.89699190
