data_SECYUX
_symmetry_space_group_name_H-M    'P1'
_symmetry_Int_Tables_number       1
loop_
_symmetry_equiv_pos_site_id
_symmetry_equiv_pos_as_xyz
1 x,y,z
_cell_length_a                   9.55304
_cell_length_b                   7.70463
_cell_length_c                   16.90305
_cell_angle_alpha                90.0
_cell_angle_beta                 100.7044
_cell_angle_gamma                90.0
loop_
_atom_site_label
_atom_site_type_symbol
_atom_site_fract_x
_atom_site_fract_y
_atom_site_fract_z
     1  Br         0.15973300       0.09101300       0.17753200
     2  Br         0.84026700       0.59101300       0.32246800
     3  Br         0.84026700       0.90898700       0.82246800
     4  Br         0.15973300       0.40898700       0.67753200
     5  C         -0.01593000       0.08453000       0.29938150
     6  C          0.01593000       0.58453000       0.20061850
     7  C          0.01593000       0.91547000       0.70061850
     8  C         -0.01593000       0.41547000       0.79938150
     9  N          0.11532000       0.04773000       0.28053110
    10  N          0.88468000       0.54773000       0.21946890
    11  N          0.88468000       0.95227000       0.71946890
    12  N          0.11532000       0.45227000       0.78053110
    13  O          0.33052000       0.93337000       0.33916100
    14  O          0.66948000       0.43337000       0.16083900
    15  O          0.66948000       0.06663000       0.66083900
    16  O          0.33052000       0.56663000       0.83916100
    17  O          0.88528000       0.14553000       0.25383120
    18  O          0.11472000       0.64553000       0.24616880
    19  O          0.11472000       0.85447000       0.74616880
    20  O          0.88528000       0.35447000       0.75383120
    21  C          0.21043000       0.97247000       0.34226140
    22  C          0.78957000       0.47247000       0.15773860
    23  C          0.78957000       0.02753000       0.65773860
    24  C          0.21043000       0.52753000       0.84226140
    25  C          0.13453000       0.95256000       0.41165140
    26  C          0.86547000       0.45256000       0.08834860
    27  C          0.86547000       0.04744000       0.58834860
    28  C          0.13453000       0.54744000       0.91165140
    29  H          0.18720000       0.00930000       0.45920000
    30  H          0.81280000       0.50930000       0.04080000
    31  H          0.81280000      -0.00930000       0.54080000
    32  H          0.18720000       0.49070000       0.95920000
    33  H          0.12360000       0.83080000       0.42370000
    34  H          0.87640000       0.33080000       0.07630000
    35  H          0.87640000       0.16920000       0.57630000
    36  H          0.12360000       0.66920000       0.92370000
    37  C         -0.00913000       0.03714000       0.38558150
    38  C          0.00913000       0.53714000       0.11441850
    39  C          0.00913000       0.96286000       0.61441850
    40  C         -0.00913000       0.46286000       0.88558150
    41  H          0.91500000       0.95710000       0.39120000
    42  H          0.08500000       0.45710000       0.10880000
    43  H          0.08500000       0.04290000       0.60880000
    44  H          0.91500000       0.54290000       0.89120000
    45  H          0.98260000       0.13970000       0.41760000
    46  H          0.01740000       0.63970000       0.08240000
    47  H          0.01740000       0.86030000       0.58240000
    48  H          0.98260000       0.36030000       0.91760000
    49  C          0.26853000       0.42733000       0.41995140
    50  C          0.73147000       0.92733000       0.08004860
    51  C          0.73147000       0.57267000       0.58004860
    52  C          0.26853000       0.07267000       0.91995140
    53  H          0.23260000       0.48510000       0.37220000
    54  H          0.76740000      -0.01490000       0.12780000
    55  H          0.76740000       0.51490000       0.62780000
    56  H          0.23260000       0.01490000       0.87220000
    57  C          0.44233000       0.25443000       0.50337140
    58  C          0.55767000       0.75443000      -0.00337140
    59  C          0.55767000       0.74557000       0.49662860
    60  C          0.44233000       0.24557000       0.00337140
    61  H          0.52640000       0.19060000       0.51310000
    62  H          0.47360000       0.69060000       0.98690000
    63  H          0.47360000       0.80940000       0.48690000
    64  H          0.52640000       0.30940000       0.01310000
    65  C          0.39903000       0.33933000       0.42895130
    66  C          0.60097000       0.83933000       0.07104870
    67  C          0.60097000       0.66067000       0.57104870
    68  C          0.39903000       0.16067000       0.92895130
    69  N          0.23763000       0.34963000       0.55208120
    70  N          0.76237000       0.84963000       0.94791880
    71  N          0.76237000       0.65037000       0.44791880
    72  N          0.23763000       0.15037000       0.05208120
    73  N          0.47872000       0.33803000       0.37126120
    74  N          0.52128000       0.83803000       0.12873880
    75  N          0.52128000       0.66197000       0.62873880
    76  N          0.47872000       0.16197000       0.87126120
    77  C          0.36093000       0.26643000       0.56047140
    78  C          0.63907000       0.76643000       0.93952860
    79  C          0.63907000       0.73357000       0.43952860
    80  C          0.36093000       0.23357000       0.06047140
    81  H          0.39390000       0.21200000       0.60950000
    82  H          0.60610000       0.71200000       0.89050000
    83  H          0.60610000       0.78800000       0.39050000
    84  H          0.39390000       0.28800000       0.10950000
    85  C          0.19513000       0.42754000       0.48118150
    86  C          0.80487000       0.92754000       0.01881850
    87  C          0.80487000       0.57246000       0.51881850
    88  C          0.19513000       0.07246000       0.98118150
    89  H          0.10860000       0.48630000       0.47320000
    90  H          0.89140000      -0.01370000       0.02680000
    91  H          0.89140000       0.51370000       0.52680000
    92  H          0.10860000       0.01370000       0.97320000
    93  C          0.43363000       0.43594000       0.29727140
    94  C          0.56637000       0.93594000       0.20272860
    95  C          0.56637000       0.56406000       0.70272860
    96  C          0.43363000       0.06406000       0.79727140
    97  H          0.35120000       0.38180000       0.26580000
    98  H          0.64880000       0.88180000       0.23420000
    99  H          0.64880000       0.61820000       0.73420000
   100  H          0.35120000       0.11820000       0.76580000
   101  H          0.50940000       0.43770000       0.26710000
   102  H          0.49060000       0.93770000       0.23290000
   103  H          0.49060000       0.56230000       0.73290000
   104  H          0.50940000       0.06230000       0.76710000
   105  H          0.41070000       0.55250000       0.31020000
   106  H          0.58930000       0.05250000       0.18980000
   107  H          0.58930000       0.44750000       0.68980000
   108  H          0.41070000       0.94750000       0.81020000
   109  C          0.60653000       0.23304000       0.37887170
   110  C          0.39347000       0.73304000       0.12112830
   111  C          0.39347000       0.76696000       0.62112830
   112  C          0.60653000       0.26696000       0.87887170
   113  H          0.67410000       0.27040000       0.42500000
   114  H          0.32590000       0.77040000       0.07500000
   115  H          0.32590000       0.72960000       0.57500000
   116  H          0.67410000       0.22960000       0.92500000
   117  H          0.64710000       0.24580000       0.33130000
   118  H          0.35290000       0.74580000       0.16870000
   119  H          0.35290000       0.75420000       0.66870000
   120  H          0.64710000       0.25420000       0.83130000
   121  H          0.58280000       0.11340000       0.38530000
   122  H          0.41720000       0.61340000       0.11470000
   123  H          0.41720000       0.88660000       0.61470000
   124  H          0.58280000       0.38660000       0.88530000
