data_SECZIM
_symmetry_space_group_name_H-M    'P1'
_symmetry_Int_Tables_number       1
loop_
_symmetry_equiv_pos_site_id
_symmetry_equiv_pos_as_xyz
1 x,y,z
_cell_length_a                   32.285316
_cell_length_b                   6.12433
_cell_length_c                   7.59534
_cell_angle_alpha                90.0
_cell_angle_beta                 90.0
_cell_angle_gamma                90.0
loop_
_atom_site_label
_atom_site_type_symbol
_atom_site_fract_x
_atom_site_fract_y
_atom_site_fract_z
     1  Br         0.43630200       0.45204500       0.66567300
     2  Br         0.56369800       0.54795500       0.16567300
     3  Br         0.06369800       0.95204500       0.16567300
     4  Br         0.93630200       0.04795500       0.66567300
     5  O          0.45654110       0.01434000       0.86506000
     6  O          0.54345890      -0.01434000       0.36506000
     7  O          0.04345890       0.51434000       0.36506000
     8  O          0.95654110       0.48566000       0.86506000
     9  N          0.48532900       0.30484000       0.71987000
    10  N          0.51467100       0.69516000       0.21987000
    11  N          0.01467100       0.80484000       0.21987000
    12  N          0.98532900       0.19516000       0.71987000
    13  O          0.52948900       0.56804000       0.61296000
    14  O          0.47051100       0.43196000       0.11296000
    15  O          0.97051100       0.06804000       0.11296000
    16  O          0.02948900       0.93196000       0.61296000
    17  C          0.55554110       0.23196000       0.74595000
    18  C          0.44445890       0.76804000       0.24595000
    19  C          0.94445890       0.73196000       0.24595000
    20  C          0.05554110       0.26804000       0.74595000
    21  H          0.57580000       0.30180000       0.82180000
    22  H          0.42420000       0.69820000       0.32180000
    23  H          0.92420000       0.80180000       0.32180000
    24  H          0.07580000       0.19820000       0.82180000
    25  H          0.56990000       0.16600000       0.64710000
    26  H          0.43010000       0.83400000       0.14710000
    27  H          0.93010000       0.66600000       0.14710000
    28  H          0.06990000       0.33400000       0.64710000
    29  C          0.52411100       0.39345000       0.68354000
    30  C          0.47588900       0.60655000       0.18354000
    31  C          0.97588900       0.89345000       0.18354000
    32  C          0.02411100       0.10655000       0.68354000
    33  C          0.48639120       0.11326000       0.81685000
    34  C          0.51360880       0.88674000       0.31685000
    35  C          0.01360880       0.61326000       0.31685000
    36  C          0.98639120       0.38674000       0.81685000
    37  C          0.53102130       0.06116000       0.84724000
    38  C          0.46897870       0.93884000       0.34724000
    39  C          0.96897870       0.56116000       0.34724000
    40  C          0.03102130       0.43884000       0.84724000
    41  H          0.53740000       0.91580000       0.80460000
    42  H          0.46260000       0.08420000       0.30460000
    43  H          0.96260000       0.41580000       0.30460000
    44  H          0.03740000       0.58420000       0.80460000
    45  H          0.53750000       0.06810000       0.97190000
    46  H          0.46250000       0.93190000       0.47190000
    47  H          0.96250000       0.56810000       0.47190000
    48  H          0.03750000       0.43190000       0.97190000
    49  O          0.74400900       0.78466000       0.11795000
    50  O          0.25599100       0.21534000       0.61795000
    51  O          0.75599100       0.28466000       0.61795000
    52  O          0.24400900       0.71534000       0.11795000
    53  N          0.63096900       0.32676000       0.10774000
    54  N          0.36903100       0.67324000       0.60774000
    55  N          0.86903100       0.82676000       0.60774000
    56  N          0.13096900       0.17324000       0.10774000
    57  C          0.78747110       0.09315000       0.10994000
    58  C          0.21252890       0.90685000       0.60994000
    59  C          0.71252890       0.59315000       0.60994000
    60  C          0.28747110       0.40685000       0.10994000
    61  C          0.70684100       0.11155000       0.11614000
    62  C          0.29315900       0.88845000       0.61614000
    63  C          0.79315900       0.61155000       0.61614000
    64  C          0.20684100       0.38845000       0.11614000
    65  C          0.67173110       0.01926000       0.19037000
    66  C          0.32826890      -0.01926000       0.69037000
    67  C          0.82826890       0.51926000       0.69037000
    68  C          0.17173110       0.48074000       0.19037000
    69  H          0.67310000       0.88270000       0.24370000
    70  H          0.32690000       0.11730000       0.74370000
    71  H          0.82690000       0.38270000       0.74370000
    72  H          0.17310000       0.61730000       0.24370000
    73  C          0.86687120       0.26337000       0.11485000
    74  C          0.13312880       0.73663000       0.61485000
    75  C          0.63312880       0.76337000       0.61485000
    76  C          0.36687120       0.23663000       0.11485000
    77  H          0.89350000       0.32080000       0.11660000
    78  H          0.10650000       0.67920000       0.61660000
    79  H          0.60650000       0.82080000       0.61660000
    80  H          0.39350000       0.17920000       0.11660000
    81  C          0.70273110       0.31386000       0.03694000
    82  C          0.29726890       0.68614000       0.53694000
    83  C          0.79726890       0.81386000       0.53694000
    84  C          0.20273110       0.18614000       0.03694000
    85  H          0.72550000       0.38190000      -0.01420000
    86  H          0.27450000       0.61810000       0.48580000
    87  H          0.77450000       0.88190000       0.48580000
    88  H          0.22550000       0.11810000      -0.01420000
    89  C          0.74624120      -0.01786000       0.11464000
    90  C          0.25375880       0.01786000       0.61464000
    91  C          0.75375880       0.48214000       0.61464000
    92  C          0.24624120       0.51786000       0.11464000
    93  C          0.83452120       0.38186000       0.18467000
    94  C          0.16547880       0.61814000       0.68467000
    95  C          0.66547880       0.88186000       0.68467000
    96  C          0.33452120       0.11814000       0.18467000
    97  H          0.83950000       0.51810000       0.23430000
    98  H          0.16050000       0.48190000       0.73430000
    99  H          0.66050000       0.01810000       0.73430000
   100  H          0.33950000      -0.01810000       0.23430000
   101  C          0.85997120       0.05988000       0.04205000
   102  C          0.14002880       0.94012000       0.54205000
   103  C          0.64002880       0.55988000       0.54205000
   104  C          0.35997120       0.44012000       0.04205000
   105  H          0.88190000      -0.01900000      -0.00590000
   106  H          0.11810000       0.01900000       0.49410000
   107  H          0.61810000       0.48100000       0.49410000
   108  H          0.38190000       0.51900000      -0.00590000
   109  C          0.82107130       0.97544000       0.04085000
   110  C          0.17892870       0.02456000       0.54085000
   111  C          0.67892870       0.47544000       0.54085000
   112  C          0.32107130       0.52456000       0.04085000
   113  H          0.81660000       0.83750000      -0.00660000
   114  H          0.18340000       0.16250000       0.49340000
   115  H          0.68340000       0.33750000       0.49340000
   116  H          0.31660000       0.66250000      -0.00660000
   117  C          0.66452130       0.41296000       0.03475000
   118  C          0.33547870       0.58704000       0.53475000
   119  C          0.83547870       0.91296000       0.53475000
   120  C          0.16452130       0.08704000       0.03475000
   121  H          0.66210000       0.54750000       0.97900000
   122  H          0.33790000       0.45250000       0.47900000
   123  H          0.83790000       0.04750000       0.47900000
   124  H          0.16210000       0.95250000       0.97900000
   125  C          0.79462100       0.29835000       0.18106000
   126  C          0.20537900       0.70165000       0.68106000
   127  C          0.70537900       0.79835000       0.68106000
   128  C          0.29462100       0.20165000       0.18106000
   129  H          0.77270000       0.37960000       0.22600000
   130  H          0.22730000       0.62040000       0.72600000
   131  H          0.72730000       0.87960000       0.72600000
   132  H          0.27270000       0.12040000       0.22600000
   133  C          0.63474110       0.13236000       0.18397000
   134  C          0.36525890       0.86764000       0.68397000
   135  C          0.86525890       0.63236000       0.68397000
   136  C          0.13474110       0.36764000       0.18397000
   137  H          0.61140000       0.06970000       0.23520000
   138  H          0.38860000       0.93030000       0.73520000
   139  H          0.88860000       0.56970000       0.73520000
   140  H          0.11140000       0.43030000       0.23520000
