data_SECZAE
_symmetry_space_group_name_H-M    'P1'
_symmetry_Int_Tables_number       1
loop_
_symmetry_equiv_pos_site_id
_symmetry_equiv_pos_as_xyz
1 x,y,z
_cell_length_a                   4.09648
_cell_length_b                   9.8562
_cell_length_c                   13.6422
_cell_angle_alpha                93.72515
_cell_angle_beta                 98.62415
_cell_angle_gamma                90.40416
loop_
_atom_site_label
_atom_site_type_symbol
_atom_site_fract_x
_atom_site_fract_y
_atom_site_fract_z
     1  Br         0.25336160       0.80858600       0.15773500
     2  Br         0.74663840       0.19141400       0.84226500
     3  N          0.13751100       0.78754000       0.28143000
     4  N          0.86248900       0.21246000       0.71857000
     5  O          0.90579000       0.57404000       0.24293000
     6  O          0.09421000       0.42596000       0.75707000
     7  O          0.31991200      -0.00886000       0.36033000
     8  O          0.68008800       0.00886000       0.63967000
     9  C          0.19261500       0.87907000       0.36184000
    10  C          0.80738500       0.12093000       0.63816000
    11  C         -0.01321400       0.66686000       0.30414000
    12  C          0.01321400       0.33314000       0.69586000
    13  C          0.95548500       0.67606000       0.41164000
    14  C          0.04451500       0.32394000       0.58836000
    15  H          0.09430000       0.60980000       0.44670000
    16  H          0.90570000       0.39020000       0.55330000
    17  H          0.72850000       0.66020000       0.42090000
    18  H          0.27150000       0.33980000       0.57910000
    19  C          0.06991500       0.82176000       0.44914000
    20  C          0.93008500       0.17824000       0.55086000
    21  H          0.88800000       0.87430000       0.46850000
    22  H          0.11200000       0.12570000       0.53150000
    23  H          0.24510000       0.82110000       0.50540000
    24  H          0.75490000       0.17890000       0.49460000
    25  C          0.56711500       0.68466000       0.96374000
    26  C          0.43288500       0.31534000       0.03626000
    27  H          0.64410000       0.63280000       0.01670000
    28  H          0.35590000       0.36720000       0.98330000
    29  N          0.41101200       0.80035000       0.98304000
    30  N          0.58898800       0.19965000       0.01696000
    31  C          0.62021400       0.63796000       0.87034000
    32  C          0.37978600       0.36204000       0.12966000
    33  H          0.73100000       0.55730000       0.86080000
    34  H          0.26900000       0.44270000       0.13920000
    35  C          0.50591400       0.71316000       0.79144000
    36  C          0.49408600       0.28684000       0.20856000
    37  C          0.55151500       0.67006000       0.69235000
    38  C          0.44848500       0.32994000       0.30765000
    39  N          0.59001500       0.63646000       0.61384000
    40  N          0.40998500       0.36354000       0.38616000
    41  C          0.34701500       0.83356000       0.80985000
    42  C          0.65298500       0.16644000       0.19015000
    43  H          0.26900000       0.88730000       0.75800000
    44  H          0.73100000       0.11270000       0.24200000
    45  C          0.30661500       0.87206000       0.90535000
    46  C          0.69338500       0.12794000       0.09465000
    47  H          0.19970000       0.95320000       0.91670000
    48  H          0.80030000       0.04680000       0.08330000
