data_SECZEI
_symmetry_space_group_name_H-M    'P1'
_symmetry_Int_Tables_number       1
loop_
_symmetry_equiv_pos_site_id
_symmetry_equiv_pos_as_xyz
1 x,y,z
_cell_length_a                   11.40314
_cell_length_b                   5.67433
_cell_length_c                   19.60211
_cell_angle_alpha                90.0
_cell_angle_beta                 93.3164
_cell_angle_gamma                90.0
loop_
_atom_site_label
_atom_site_type_symbol
_atom_site_fract_x
_atom_site_fract_y
_atom_site_fract_z
     1  Br         0.20942200       0.74563400       0.25224200
     2  Br         0.79057800       0.24563400       0.24775800
     3  Br         0.79057800       0.25436600       0.74775800
     4  Br         0.20942200       0.75436600       0.75224200
     5  O          0.34207160       0.60263000       0.39116900
     6  O          0.65792840       0.10263000       0.10883100
     7  O          0.65792840       0.39737000       0.60883100
     8  O          0.34207160       0.89737000       0.89116900
     9  O          0.37796180       0.16723000       0.22924110
    10  O          0.62203820       0.66723000       0.27075890
    11  O          0.62203820       0.83277000       0.77075890
    12  O          0.37796180       0.33277000       0.72924110
    13  N          0.33692140       0.87363000       0.30427900
    14  N          0.66307860       0.37363000       0.19572100
    15  N          0.66307860       0.12637000       0.69572100
    16  N          0.33692140       0.62637000       0.80427900
    17  C          0.38102000       0.77505000       0.36542120
    18  C          0.61898000       0.27505000       0.13457880
    19  C          0.61898000       0.22495000       0.63457880
    20  C          0.38102000       0.72495000       0.86542120
    21  C          0.39902000       0.06684000       0.28247140
    22  C          0.60098000       0.56684000       0.21752860
    23  C          0.60098000       0.93316000       0.71752860
    24  C          0.39902000       0.43316000       0.78247140
    25  C          0.49322000       0.11665000       0.33688150
    26  C          0.50678000       0.61665000       0.16311850
    27  C          0.50678000       0.88335000       0.66311850
    28  C          0.49322000       0.38335000       0.83688150
    29  H          0.48300000       0.27260000       0.35590000
    30  H          0.51700000       0.77260000       0.14410000
    31  H          0.51700000       0.72740000       0.64410000
    32  H          0.48300000       0.22740000       0.85590000
    33  H          0.57010000       0.10810000       0.31830000
    34  H          0.42990000       0.60810000       0.18170000
    35  H          0.42990000       0.89190000       0.68170000
    36  H          0.57010000       0.39190000       0.81830000
    37  C          0.48122000       0.93065000       0.39101140
    38  C          0.51878000       0.43065000       0.10898860
    39  C          0.51878000       0.06935000       0.60898860
    40  C          0.48122000       0.56935000       0.89101140
    41  H          0.55310000       0.84000000       0.39740000
    42  H          0.44690000       0.34000000       0.10260000
    43  H          0.44690000       0.16000000       0.60260000
    44  H          0.55310000       0.66000000       0.89740000
    45  H          0.46420000       0.00250000       0.43420000
    46  H          0.53580000       0.50250000       0.06580000
    47  H          0.53580000      -0.00250000       0.56580000
    48  H          0.46420000       0.49750000       0.93420000
    49  O          0.17325130       0.65873000       0.51177800
    50  O          0.82674870       0.15873000       0.98822200
    51  O          0.82674870       0.34127000       0.48822200
    52  O          0.17325130       0.84127000       0.01177800
    53  O          0.27207140      -0.00187000       0.50942900
    54  O          0.72792860       0.49813000       0.99057100
    55  O          0.72792860       0.00187000       0.49057100
    56  O          0.27207140       0.50187000       0.00942900
    57  N          0.95367840       0.08503000       0.32410100
    58  N          0.04632160       0.58503000       0.17589900
    59  N          0.04632160       0.91497000       0.67589900
    60  N          0.95367840       0.41497000       0.82410100
    61  C          0.10659170       0.94354000       0.43154110
    62  C          0.89340830       0.44354000       0.06845890
    63  C          0.89340830       0.05646000       0.56845890
    64  C          0.10659170       0.55646000       0.93154110
    65  C          0.19293180       0.87385000       0.48817120
    66  C          0.80706820       0.37385000       0.01182880
    67  C          0.80706820       0.12615000       0.51182880
    68  C          0.19293180       0.62615000       0.98817120
    69  C          0.12456190       0.15184000       0.39705120
    70  C          0.87543810       0.65184000       0.10294880
    71  C          0.87543810       0.84816000       0.60294880
    72  C          0.12456190       0.34816000       0.89705120
    73  H          0.18810000       0.24820000       0.40960000
    74  H          0.81190000       0.74820000       0.09040000
    75  H          0.81190000       0.75180000       0.59040000
    76  H          0.18810000       0.25180000       0.90960000
    77  C          0.01031190       0.80854000       0.41151120
    78  C         -0.01031190       0.30854000       0.08848880
    79  C         -0.01031190       0.19146000       0.58848880
    80  C          0.01031190       0.69146000       0.91151120
    81  H         -0.00490000       0.66790000       0.43370000
    82  H          0.00490000       0.16790000       0.06630000
    83  H          0.00490000       0.33210000       0.56630000
    84  H         -0.00490000       0.83210000       0.93370000
    85  C          0.04712000       0.21344000       0.34406130
    86  C          0.95288000       0.71344000       0.15593870
    87  C          0.95288000       0.78656000       0.65593870
    88  C          0.04712000       0.28656000       0.84406130
    89  H          0.06050000       0.35270000       0.32070000
    90  H          0.93950000       0.85270000       0.17930000
    91  H          0.93950000       0.64730000       0.67930000
    92  H          0.06050000       0.14730000       0.82070000
    93  C          0.93679810       0.88644000       0.35770120
    94  C          0.06320190       0.38644000       0.14229880
    95  C          0.06320190       0.11356000       0.64229880
    96  C          0.93679810       0.61356000       0.85770120
    97  H          0.87200000       0.79450000       0.34430000
    98  H          0.12800000       0.29450000       0.15570000
    99  H          0.12800000       0.20550000       0.65570000
   100  H          0.87200000       0.70550000       0.84430000
   101  C          0.26172000       0.56824000       0.56051130
   102  C          0.73828000       0.06824000       0.93948870
   103  C          0.73828000       0.43176000       0.43948870
   104  C          0.26172000       0.93176000       0.06051130
   105  H          0.33810000       0.59310000       0.54360000
   106  H          0.66190000       0.09310000       0.95640000
   107  H          0.66190000       0.40690000       0.45640000
   108  H          0.33810000       0.90690000       0.04360000
   109  H          0.24930000       0.40260000       0.56700000
   110  H          0.75070000       0.90260000       0.93300000
   111  H          0.75070000       0.59740000       0.43300000
   112  H          0.24930000       0.09740000       0.06700000
   113  H          0.25660000       0.64880000       0.60330000
   114  H          0.74340000       0.14880000       0.89670000
   115  H          0.74340000       0.35120000       0.39670000
   116  H          0.25660000       0.85120000       0.10330000
