data_SEDFUF
_symmetry_space_group_name_H-M    'P1'
_symmetry_Int_Tables_number       1
loop_
_symmetry_equiv_pos_site_id
_symmetry_equiv_pos_as_xyz
1 x,y,z
_cell_length_a                   7.10585
_cell_length_b                   9.42297
_cell_length_c                   26.3482
_cell_angle_alpha                90.0
_cell_angle_beta                 93.6498
_cell_angle_gamma                90.0
loop_
_atom_site_label
_atom_site_type_symbol
_atom_site_fract_x
_atom_site_fract_y
_atom_site_fract_z
     1  C          0.02126000       0.13635000       0.02260170
     2  C          0.47874000       0.63635000       0.47739830
     3  C          0.97874000       0.86365000       0.97739830
     4  C          0.52126000       0.36365000       0.52260170
     5  C          0.86216000       0.09835000       0.99192000
     6  C          0.63784000       0.59835000       0.50808000
     7  C          0.13784000       0.90165000       0.00808000
     8  C          0.36216000       0.40165000       0.49192000
     9  C          0.84337000       0.96375000       0.97012000
    10  C          0.65663000       0.46375000       0.52988000
    11  C          0.15663000       0.03625000       0.02988000
    12  C          0.34337000       0.53625000       0.47012000
    13  I          0.04122600       0.33250400       0.05733200
    14  I          0.45877400       0.83250400       0.44266800
    15  I          0.95877400       0.66749600       0.94266800
    16  I          0.54122600       0.16749600       0.55733200
    17  F          0.68795000       0.93906000       0.94057160
    18  F          0.81205000       0.43906000       0.55942840
    19  F          0.31205000       0.06094000       0.05942840
    20  F          0.18795000       0.56094000       0.44057160
    21  F          0.72446000       0.19304000       0.98338180
    22  F          0.77554000       0.69304000       0.51661820
    23  F          0.27554000       0.80696000       0.01661820
    24  F          0.22446000       0.30696000       0.48338180
    25  C          0.44707000       0.37065000       0.34438180
    26  C          0.05293000       0.87065000       0.15561820
    27  C          0.55293000       0.62935000       0.65561820
    28  C          0.94707000       0.12935000       0.84438180
    29  C          0.56448000       0.48886000       0.35042000
    30  C          0.93552000      -0.01114000       0.14958000
    31  C          0.43552000       0.51114000       0.64958000
    32  C          0.06448000       0.01114000       0.85042000
    33  H          0.52930000       0.57380000       0.33440000
    34  H          0.97070000       0.07380000       0.16560000
    35  H          0.47070000       0.42620000       0.66560000
    36  H          0.02930000       0.92620000       0.83440000
    37  C          0.72958000       0.48116000       0.37922000
    38  C          0.77042000       0.98116000       0.12078000
    39  C          0.27042000       0.51884000       0.62078000
    40  C          0.22958000       0.01884000       0.87922000
    41  H          0.80570000       0.56110000       0.38320000
    42  H          0.69430000       0.06110000       0.11680000
    43  H          0.19430000       0.43890000       0.61680000
    44  H          0.30570000       0.93890000       0.88320000
    45  C          0.78458000       0.35626000       0.40242000
    46  C          0.71542000       0.85626000       0.09758000
    47  C          0.21542000       0.64374000       0.59758000
    48  C          0.28458000       0.14374000       0.90242000
    49  H          0.89840000       0.35160000       0.42180000
    50  H          0.60160000       0.85160000       0.07820000
    51  H          0.10160000       0.64840000       0.57820000
    52  H          0.39840000       0.14840000       0.92180000
    53  C          0.67147000       0.23735000       0.39714180
    54  C          0.82853000       0.73735000       0.10285820
    55  C          0.32853000       0.76265000       0.60285820
    56  C          0.17147000       0.26265000       0.89714180
    57  C          0.50076000       0.24425000       0.36868160
    58  C         -0.00076000       0.74425000       0.13131840
    59  C          0.49924000       0.75575000       0.63131840
    60  C          0.00076000       0.25575000       0.86868160
    61  C          0.27487000       0.37735000       0.31154190
    62  C          0.22513000       0.87735000       0.18845810
    63  C          0.72513000       0.62265000       0.68845810
    64  C          0.77487000       0.12265000       0.81154190
    65  H          0.24060000       0.46370000       0.29660000
    66  H          0.25940000       0.96370000       0.20340000
    67  H          0.75940000       0.53630000       0.70340000
    68  H          0.74060000       0.03630000       0.79660000
    69  C          0.00826000       0.28285000       0.26769170
    70  C          0.49174000       0.78285000       0.23230830
    71  C         -0.00826000       0.71715000       0.73230830
    72  C          0.50826000       0.21715000       0.76769170
    73  C          0.00476000       0.36615000       0.22425180
    74  C          0.49524000       0.86615000       0.27574820
    75  C         -0.00476000       0.63385000       0.77574820
    76  C          0.50476000       0.13385000       0.72425180
    77  H          0.11140000       0.41700000       0.21660000
    78  H          0.38860000       0.91700000       0.28340000
    79  H          0.88860000       0.58300000       0.78340000
    80  H          0.61140000       0.08300000       0.71660000
    81  C          0.84284000       0.37395000       0.19218180
    82  C          0.65716000       0.87395000       0.30781820
    83  C          0.15716000       0.62605000       0.80781820
    84  C          0.34284000       0.12605000       0.69218180
    85  H          0.84020000       0.42960000       0.16300000
    86  H          0.65980000       0.92960000       0.33700000
    87  H          0.15980000       0.57040000       0.83700000
    88  H          0.34020000       0.07040000       0.66300000
    89  C          0.68684000       0.29835000       0.20403190
    90  C          0.81316000       0.79835000       0.29596810
    91  C          0.31316000       0.70165000       0.79596810
    92  C          0.18684000       0.20165000       0.70403190
    93  C          0.68933000       0.21256000       0.24602000
    94  C          0.81067000       0.71256000       0.25398000
    95  C          0.31067000       0.78744000       0.75398000
    96  C          0.18933000       0.28744000       0.74602000
    97  H          0.58300000       0.16060000       0.25320000
    98  H          0.91700000       0.66060000       0.24680000
    99  H          0.41700000       0.83940000       0.74680000
   100  H          0.08300000       0.33940000       0.75320000
   101  C          0.85143000       0.20405000       0.27732000
   102  C          0.64857000       0.70405000       0.22268000
   103  C          0.14857000       0.79595000       0.72268000
   104  C          0.35143000       0.29595000       0.77732000
   105  H          0.85510000       0.14410000       0.30540000
   106  H          0.64490000       0.64410000       0.19460000
   107  H          0.14490000       0.85590000       0.69460000
   108  H          0.35510000       0.35590000       0.80540000
   109  C          0.89378000       0.08967000       0.44402000
   110  C          0.60622000       0.58967000       0.05598000
   111  C          0.10622000       0.91033000       0.55598000
   112  C          0.39378000       0.41033000       0.94402000
   113  H         -0.00770000       0.11120000       0.42190000
   114  H          0.50770000       0.61120000       0.07810000
   115  H          0.00770000       0.88880000       0.57810000
   116  H          0.49230000       0.38880000       0.92190000
   117  H          0.90640000      -0.00680000       0.45550000
   118  H          0.59360000       0.49320000       0.04450000
   119  H          0.09360000       0.00680000       0.54450000
   120  H          0.40640000       0.50680000       0.95550000
   121  H          0.90260000       0.15230000       0.47270000
   122  H          0.59740000       0.65230000       0.02730000
   123  H          0.09740000       0.84770000       0.52730000
   124  H          0.40260000       0.34770000       0.97270000
   125  N          0.16915000       0.27084000       0.30230140
   126  N          0.33085000       0.77084000       0.19769860
   127  N          0.83085000       0.72916000       0.69769860
   128  N          0.66915000       0.22916000       0.80230140
   129  O          0.39405000       0.12424000       0.36459140
   130  O          0.10595000       0.62424000       0.13540860
   131  O          0.60595000       0.87576000       0.63540860
   132  O          0.89405000       0.37576000       0.86459140
   133  O          0.71495000       0.10764000       0.41693150
   134  O          0.78505000       0.60764000       0.08306850
   135  O          0.28505000       0.89236000       0.58306850
   136  O          0.21495000       0.39236000       0.91693150
   137  Br         0.46379200       0.31073700       0.16041300
   138  Br         0.03620800       0.81073700       0.33958700
   139  Br         0.53620800       0.68926300       0.83958700
   140  Br         0.96379200       0.18926300       0.66041300
   141  H          0.31080000       0.14060000       0.34720000
   142  H          0.18920000       0.64060000       0.15280000
   143  H          0.68920000       0.85940000       0.65280000
   144  H          0.81080000       0.35940000       0.84720000
