data_SEHJAS
_symmetry_space_group_name_H-M    'P1'
_symmetry_Int_Tables_number       1
loop_
_symmetry_equiv_pos_site_id
_symmetry_equiv_pos_as_xyz
1 x,y,z
_cell_length_a                   8.47629
_cell_length_b                   15.7872
_cell_length_c                   8.315811
_cell_angle_alpha                90.0
_cell_angle_beta                 97.2101
_cell_angle_gamma                90.0
loop_
_atom_site_label
_atom_site_type_symbol
_atom_site_fract_x
_atom_site_fract_y
_atom_site_fract_z
     1  Br         0.50671600       0.39060300       0.59423600
     2  Br         0.49328400       0.89060300       0.90576400
     3  Br         0.49328400       0.60939700       0.40576400
     4  Br         0.50671600       0.10939700       0.09423600
     5  Br         0.12990600       0.39976300       0.57371600
     6  Br         0.87009400       0.89976300       0.92628400
     7  Br         0.87009400       0.60023700       0.42628400
     8  Br         0.12990600       0.10023700       0.07371600
     9  Br         0.29172700       0.28946400       0.32189700
    10  Br         0.70827300       0.78946400       0.17810300
    11  Br         0.70827300       0.71053600       0.67810300
    12  Br         0.29172700       0.21053600       0.82189700
    13  C          0.30866000       0.39023000       0.45356000
    14  C          0.69134000       0.89023000       0.04644000
    15  C          0.69134000       0.60977000       0.54644000
    16  C          0.30866000       0.10977000       0.95356000
    17  H          0.30770000       0.43930000       0.38130000
    18  H          0.69230000       0.93930000       0.11870000
    19  H          0.69230000       0.56070000       0.61870000
    20  H          0.30770000       0.06070000       0.88130000
    21  O          0.15394000       0.55403000       0.22155000
    22  O          0.84606000       0.05403000       0.27845000
    23  O          0.84606000       0.44597000       0.77845000
    24  O          0.15394000       0.94597000       0.72155000
    25  C          0.15806000       0.57423000       0.08026000
    26  C          0.84194000       0.07423000       0.41974000
    27  C          0.84194000       0.42577000       0.91974000
    28  C          0.15806000       0.92577000       0.58026000
    29  C          0.25638000       0.52774000       0.97572000
    30  C          0.74362000       0.02774000       0.52428000
    31  C          0.74362000       0.47226000       0.02428000
    32  C          0.25638000       0.97226000       0.47572000
    33  H          0.18780000       0.49420000       0.89800000
    34  H          0.81220000      -0.00580000       0.60200000
    35  H          0.81220000       0.50580000       0.10200000
    36  H          0.18780000       0.00580000       0.39800000
    37  H          0.32610000       0.48910000       0.04190000
    38  H          0.67390000       0.98910000       0.45810000
    39  H          0.67390000       0.51090000       0.95810000
    40  H          0.32610000       0.01090000       0.54190000
    41  C          0.35548000       0.58655000       0.88592000
    42  C          0.64452000       0.08655000       0.61408000
    43  C          0.64452000       0.41345000       0.11408000
    44  C          0.35548000       0.91345000       0.38592000
    45  H          0.43890000       0.61100000       0.96230000
    46  H          0.56110000       0.11100000       0.53770000
    47  H          0.56110000       0.38900000       0.03770000
    48  H          0.43890000       0.88900000       0.46230000
    49  H          0.40550000       0.55410000       0.80720000
    50  H          0.59450000       0.05410000       0.69280000
    51  H          0.59450000       0.44590000       0.19280000
    52  H          0.40550000       0.94590000       0.30720000
    53  C          0.25867000       0.65654000       0.80024000
    54  C          0.74133000       0.15654000       0.69976000
    55  C          0.74133000       0.34346000       0.19976000
    56  C          0.25867000       0.84346000       0.30024000
    57  H          0.32800000       0.69480000       0.75090000
    58  H          0.67200000       0.19480000       0.74910000
    59  H          0.67200000       0.30520000       0.24910000
    60  H          0.32800000       0.80520000       0.25090000
    61  H          0.18290000       0.63280000       0.71500000
    62  H          0.81710000       0.13280000       0.78500000
    63  H          0.81710000       0.36720000       0.28500000
    64  H          0.18290000       0.86720000       0.21500000
    65  C          0.17258000       0.70384000       0.91612000
    66  C          0.82742000       0.20384000       0.58388000
    67  C          0.82742000       0.29616000       0.08388000
    68  C          0.17258000       0.79616000       0.41612000
    69  H          0.10710000       0.74700000       0.85780000
    70  H          0.89290000       0.24700000       0.64220000
    71  H          0.89290000       0.25300000       0.14220000
    72  H          0.10710000       0.75300000       0.35780000
    73  H          0.24920000       0.73210000      -0.00540000
    74  H          0.75080000       0.23210000       0.50540000
    75  H          0.75080000       0.26790000       0.00540000
    76  H          0.24920000       0.76790000       0.49460000
    77  C          0.06767000       0.64714000       0.00578000
    78  C          0.93233000       0.14714000       0.49422000
    79  C          0.93233000       0.35286000      -0.00578000
    80  C          0.06767000       0.85286000       0.50578000
    81  H          0.02500000       0.67960000       0.08930000
    82  H          0.97500000       0.17960000       0.41070000
    83  H          0.97500000       0.32040000       0.91070000
    84  H          0.02500000       0.82040000       0.58930000
    85  H          0.97890000       0.62680000       0.93050000
    86  H          0.02110000       0.12680000       0.56950000
    87  H          0.02110000       0.37320000       0.06950000
    88  H          0.97890000       0.87320000       0.43050000
