data_SENZOE
_symmetry_space_group_name_H-M    'P1'
_symmetry_Int_Tables_number       1
loop_
_symmetry_equiv_pos_site_id
_symmetry_equiv_pos_as_xyz
1 x,y,z
_cell_length_a                   17.180575
_cell_length_b                   9.868743
_cell_length_c                   17.089736
_cell_angle_alpha                90.0
_cell_angle_beta                 90.75773
_cell_angle_gamma                90.0
loop_
_atom_site_label
_atom_site_type_symbol
_atom_site_fract_x
_atom_site_fract_y
_atom_site_fract_z
     1  I          0.14783200       0.51576200       0.41145200
     2  I          0.85216800       0.01576200       0.08854800
     3  I          0.85216800       0.48423800       0.58854800
     4  I          0.14783200       0.98423800       0.91145200
     5  P          0.63814300       0.57094700       0.28034400
     6  P          0.36185700       0.07094700       0.21965600
     7  P          0.36185700       0.42905300       0.71965600
     8  P          0.63814300       0.92905300       0.78034400
     9  F          0.66835120       0.70532000       0.23954140
    10  F          0.33164880       0.20532000       0.26045860
    11  F          0.33164880       0.29468000       0.76045860
    12  F          0.66835120       0.79468000       0.73954140
    13  F          0.60957120       0.43482000       0.32160140
    14  F          0.39042880       0.93482000       0.17839860
    15  F          0.39042880       0.56518000       0.67839860
    16  F          0.60957120       0.06518000       0.82160140
    17  F          0.70956140       0.49382000       0.24385150
    18  F          0.29043860      -0.00618000       0.25614850
    19  F          0.29043860       0.50618000       0.75614850
    20  F          0.70956140       0.00618000       0.74385150
    21  F          0.68965110       0.60393000       0.35565110
    22  F          0.31034890       0.10393000       0.14434890
    23  F          0.31034890       0.39607000       0.64434890
    24  F          0.68965110       0.89607000       0.85565110
    25  F          0.56644110       0.64713000       0.31751160
    26  F          0.43355890       0.14713000       0.18248840
    27  F          0.43355890       0.35287000       0.68248840
    28  F          0.56644110       0.85287000       0.81751160
    29  F          0.58526140       0.53903000       0.20614130
    30  F          0.41473860       0.03903000       0.29385870
    31  F          0.41473860       0.46097000       0.79385870
    32  F          0.58526140       0.96097000       0.70614130
    33  N          0.23063100       0.90162180       0.42349100
    34  N          0.76936900       0.40162180       0.07650900
    35  N          0.76936900       0.09837820       0.57650900
    36  N          0.23063100       0.59837820       0.92349100
    37  O          0.42642100       0.81838190       0.46892140
    38  O          0.57357900       0.31838190       0.03107860
    39  O          0.57357900       0.18161810       0.53107860
    40  O          0.42642100       0.68161810       0.96892140
    41  N          0.07919110       0.84866190       0.38768110
    42  N          0.92080890       0.34866190       0.11231890
    43  N          0.92080890       0.15133810       0.61231890
    44  N          0.07919110       0.65133810       0.88768110
    45  O          0.05095110       0.07224180       0.39445130
    46  O          0.94904890       0.57224180       0.10554870
    47  O          0.94904890       0.92775820       0.60554870
    48  O          0.05095110       0.42775820       0.89445130
    49  N          0.97523900       0.84169190       0.29591110
    50  N          0.02476100       0.34169190       0.20408890
    51  N          0.02476100       0.15830810       0.70408890
    52  N          0.97523900       0.65830810       0.79591110
    53  N          0.33036110       0.69422000       0.41233120
    54  N          0.66963890       0.19422000       0.08766880
    55  N          0.66963890       0.30578000       0.58766880
    56  N          0.33036110       0.80578000       0.91233120
    57  N          0.40007100       0.52602180       0.34400120
    58  N          0.59992900       0.02602180       0.15599880
    59  N          0.59992900       0.47397820       0.65599880
    60  N          0.40007100       0.97397820       0.84400120
    61  C          0.18132140       0.00652000       0.42412140
    62  C          0.81867860       0.50652000       0.07587860
    63  C          0.81867860      -0.00652000       0.57587860
    64  C          0.18132140       0.49348000       0.92412140
    65  C          0.35989120       0.80962000       0.44434130
    66  C          0.64010880       0.30962000       0.05565870
    67  C          0.64010880       0.19038000       0.55565870
    68  C          0.35989120       0.69038000       0.94434130
    69  C          0.37284110       0.57302000       0.41318130
    70  C          0.62715890       0.07302000       0.08681870
    71  C          0.62715890       0.42698000       0.58681870
    72  C          0.37284110       0.92698000       0.91318130
    73  C          0.30402120       0.92652000       0.44597130
    74  C          0.69597880       0.42652000       0.05402870
    75  C          0.69597880       0.07348000       0.55402870
    76  C          0.30402120       0.57348000       0.94597130
    77  C          0.43954130       0.40833000       0.34100150
    78  C          0.56045870       0.90833000       0.15899850
    79  C          0.56045870       0.59167000       0.65899850
    80  C          0.43954130       0.09167000       0.84100150
    81  C          0.00295120       0.80982000       0.36840130
    82  C         -0.00295120       0.30982000       0.13159870
    83  C         -0.00295120       0.19018000       0.63159870
    84  C          0.00295120       0.69018000       0.86840130
    85  C          0.45607130       0.33592000       0.40760160
    86  C          0.54392870       0.83592000       0.09239840
    87  C          0.54392870       0.66408000       0.59239840
    88  C          0.45607130       0.16408000       0.90760160
    89  C          0.20265140       0.13672000       0.44547150
    90  C          0.79734860       0.63672000       0.05452850
    91  C          0.79734860       0.86328000       0.55452850
    92  C          0.20265140       0.36328000       0.94547150
    93  C          0.09817150       0.98082000       0.40128150
    94  C          0.90182850       0.48082000       0.09871850
    95  C          0.90182850       0.01918000       0.59871850
    96  C          0.09817150       0.51918000       0.90128150
    97  C          0.38866140       0.50282000       0.48144150
    98  C          0.61133860       0.00282000       0.01855850
    99  C          0.61133860       0.49718000       0.51855850
   100  C          0.38866140      -0.00282000       0.98144150
   101  C          0.43111120       0.38352000       0.47869150
   102  C          0.56888880       0.88352000       0.02130850
   103  C          0.56888880       0.61648000       0.52130850
   104  C          0.43111120       0.11648000       0.97869150
   105  C          0.20085150       0.60373000       0.13427140
   106  C          0.79914850       0.10373000       0.36572860
   107  C          0.79914850       0.39627000       0.86572860
   108  C          0.20085150       0.89627000       0.63427140
   109  C          0.90242870       0.80563000       0.27342150
   110  C          0.09757130       0.30563000       0.22657850
   111  C          0.09757130       0.19437000       0.72657850
   112  C          0.90242870       0.69437000       0.77342150
   113  C          0.88281850       0.69723000       0.39574160
   114  C          0.11718150       0.19723000       0.10425840
   115  C          0.11718150       0.30277000       0.60425840
   116  C          0.88281850       0.80277000       0.89574160
   117  C          0.02673130       0.89993000       0.23534140
   118  C          0.97326870       0.39993000       0.26465860
   119  C          0.97326870       0.10007000       0.76465860
   120  C          0.02673130       0.60007000       0.73534140
   121  C          0.30827150       0.55163000       0.23167150
   122  C          0.69172850       0.05163000       0.26832850
   123  C          0.69172850       0.44837000       0.76832850
   124  C          0.30827150       0.94837000       0.73167150
   125  C          0.38392140       0.60073000       0.26937140
   126  C          0.61607860       0.10073000       0.23062860
   127  C          0.61607860       0.39927000       0.73062860
   128  C          0.38392140       0.89927000       0.76937140
   129  C          0.27661150       0.65303000       0.17250150
   130  C          0.72338850       0.15303000       0.32749850
   131  C          0.72338850       0.34697000       0.82749850
   132  C          0.27661150       0.84697000       0.67250150
   133  C          0.95687860       0.73702000       0.41891140
   134  C          0.04312140       0.23702000       0.08108860
   135  C          0.04312140       0.26298000       0.58108860
   136  C          0.95687860       0.76298000       0.91891140
   137  C          0.85506870       0.73373000       0.32207160
   138  C          0.14493130       0.23373000       0.17792840
   139  C          0.14493130       0.26627000       0.67792840
   140  C          0.85506870       0.76627000       0.82207160
   141  C          0.15736170       0.71333000       0.08764150
   142  C          0.84263830       0.21333000       0.41235850
   143  C          0.84263830       0.28667000       0.91235850
   144  C          0.15736170       0.78667000       0.58764150
   145  C          0.33037140       0.05273000       0.47096180
   146  C          0.66962860       0.55273000       0.02903820
   147  C          0.66962860       0.94727000       0.52903820
   148  C          0.33037140       0.44727000       0.97096180
   149  C          0.07253150       0.78283000       0.19941140
   150  C          0.92746850       0.28283000       0.30058860
   151  C          0.92746850       0.21717000       0.80058860
   152  C          0.07253150       0.71717000       0.69941140
   153  C          0.27852150       0.15953000       0.47043190
   154  C          0.72147850       0.65953000       0.02956810
   155  C          0.72147850       0.84047000       0.52956810
   156  C          0.27852150       0.34047000       0.97043190
   157  C          0.12604150       0.83213000       0.13535140
   158  C          0.87395850       0.33213000       0.36464860
   159  C          0.87395850       0.16787000       0.86464860
   160  C          0.12604150       0.66787000       0.63535140
   161  H          0.06021600       0.96830000       0.25861600
   162  H          0.93978400       0.46830000       0.24138400
   163  H          0.93978400       0.03170000       0.74138400
   164  H          0.06021600       0.53170000       0.75861600
   165  H          0.38091500       0.69730000       0.28211500
   166  H          0.61908500       0.19730000       0.21788500
   167  H          0.61908500       0.30270000       0.71788500
   168  H          0.38091500       0.80270000       0.78211500
   169  H          0.88818500       0.83130000       0.22591700
   170  H          0.11181500       0.33130000       0.27408300
   171  H          0.11181500       0.16870000       0.77408300
   172  H          0.88818500       0.66870000       0.72591700
   173  H          0.21161900       0.52630000       0.10120000
   174  H          0.78838100       0.02630000       0.39880000
   175  H          0.78838100       0.47370000       0.89880000
   176  H          0.21161900       0.97370000       0.60120000
   177  H          0.10491700       0.73330000       0.24261800
   178  H          0.89508300       0.23330000       0.25738200
   179  H          0.89508300       0.26670000       0.75738200
   180  H          0.10491700       0.76670000       0.74261800
   181  H          0.85328300       0.64630000       0.43121800
   182  H          0.14671700       0.14630000       0.06878200
   183  H          0.14671700       0.35370000       0.56878200
   184  H          0.85328300       0.85370000       0.93121800
   185  H          0.48231800       0.25830000       0.40281800
   186  H          0.51768200       0.75830000       0.09718200
   187  H          0.51768200       0.74170000       0.59718200
   188  H          0.48231800       0.24170000       0.90281800
   189  H          0.16711700       0.21030000       0.43991700
   190  H          0.83288300       0.71030000       0.06008300
   191  H          0.83288300       0.78970000       0.56008300
   192  H          0.16711700       0.28970000       0.93991700
   193  H          0.10920000       0.78840000       0.39820000
   194  H          0.89080000       0.28840000       0.10180000
   195  H          0.89080000       0.21160000       0.60180000
   196  H          0.10920000       0.71160000       0.89820000
   197  H          0.97698400       0.71530000       0.47001800
   198  H          0.02301600       0.21530000       0.02998200
   199  H          0.02301600       0.28470000       0.52998200
   200  H          0.97698400       0.78470000       0.97001800
   201  H          0.26611700       0.74030000       0.19621800
   202  H          0.73388300       0.24030000       0.30378200
   203  H          0.73388300       0.25970000       0.80378200
   204  H          0.26611700       0.75970000       0.69621800
   205  H          0.19291900       0.75340000       0.04720000
   206  H          0.80708100       0.25340000       0.45280000
   207  H          0.80708100       0.24660000       0.95280000
   208  H          0.19291900       0.74660000       0.54720000
   209  H         -0.00331700       0.95230000       0.19961800
   210  H          0.00331700       0.45230000       0.30038200
   211  H          0.00331700       0.04770000       0.80038200
   212  H         -0.00331700       0.54770000       0.69961800
   213  H          0.43220000       0.57440000       0.23820000
   214  H          0.56780000       0.07440000       0.26180000
   215  H          0.56780000       0.42560000       0.76180000
   216  H          0.43220000       0.92560000       0.73820000
   217  H          0.27020000       0.53530000       0.27620000
   218  H          0.72980000       0.03530000       0.22380000
   219  H          0.72980000       0.46470000       0.72380000
   220  H          0.27020000       0.96470000       0.77620000
   221  H          0.16461700       0.56730000       0.17421800
   222  H          0.83538300       0.06730000       0.32578200
   223  H          0.83538300       0.43270000       0.82578200
   224  H          0.16461700       0.93270000       0.67421800
   225  H          0.31820000       0.46140000       0.20720000
   226  H          0.68180000       0.96140000       0.29280000
   227  H          0.68180000       0.53860000       0.79280000
   228  H          0.31820000       0.03860000       0.70720000
   229  H          0.45391700       0.38430000       0.29381800
   230  H          0.54608300       0.88430000       0.20618200
   231  H          0.54608300       0.61570000       0.70618200
   232  H          0.45391700       0.11570000       0.79381800
   233  H          0.03791800       0.71630000       0.17471800
   234  H          0.96208200       0.21630000       0.32528200
   235  H          0.96208200       0.28370000       0.82528200
   236  H          0.03791800       0.78370000       0.67471800
   237  H          0.28720000       0.69440000       0.40341900
   238  H          0.71280000       0.19440000       0.09658100
   239  H          0.71280000       0.30560000       0.59658100
   240  H          0.28720000       0.80560000       0.90341900
   241  H          0.38120000       0.06440000       0.48471900
   242  H          0.61880000       0.56440000       0.01528100
   243  H          0.61880000       0.93560000       0.51528100
   244  H          0.38120000       0.43560000       0.98471900
   245  H          0.37220000       0.54240000       0.53020000
   246  H          0.62780000       0.04240000       0.96980000
   247  H          0.62780000       0.45760000       0.46980000
   248  H          0.37220000       0.95760000       0.03020000
   249  H          0.09341900       0.89730000       0.10041800
   250  H          0.90658100       0.39730000       0.39958200
   251  H          0.90658100       0.10270000       0.89958200
   252  H          0.09341900       0.60270000       0.60041800
   253  H          0.29121900       0.24540000       0.48431900
   254  H          0.70878100       0.74540000       0.01568100
   255  H          0.70878100       0.75460000       0.51568100
   256  H          0.29121900       0.25460000       0.98431900
   257  H          0.11181900       0.66840000       0.06120000
   258  H          0.88818100       0.16840000       0.43880000
   259  H          0.88818100       0.33160000       0.93880000
   260  H          0.11181900       0.83160000       0.56120000
   261  H          0.80628100       0.71030000       0.30761800
   262  H          0.19371900       0.21030000       0.19238200
   263  H          0.19371900       0.28970000       0.69238200
   264  H          0.80628100       0.78970000       0.80761800
   265  H          0.17051800       0.88730000       0.15941800
   266  H          0.82948200       0.38730000       0.34058200
   267  H          0.82948200       0.11270000       0.84058200
   268  H          0.17051800       0.61270000       0.65941800
   269  H          0.31520000       0.66640000       0.13120000
   270  H          0.68480000       0.16640000       0.36880000
   271  H          0.68480000       0.33360000       0.86880000
   272  H          0.31520000       0.83360000       0.63120000
   273  H          0.44321800       0.34130000       0.52571900
   274  H          0.55678200       0.84130000       0.97428100
   275  H          0.55678200       0.65870000       0.47428100
   276  H          0.44321800       0.15870000       0.02571900
