data_SEPLUV
_symmetry_space_group_name_H-M    'P1'
_symmetry_Int_Tables_number       1
loop_
_symmetry_equiv_pos_site_id
_symmetry_equiv_pos_as_xyz
1 x,y,z
_cell_length_a                   15.155212
_cell_length_b                   8.34537
_cell_length_c                   16.726513
_cell_angle_alpha                90.0
_cell_angle_beta                 108.01901
_cell_angle_gamma                90.0
loop_
_atom_site_label
_atom_site_type_symbol
_atom_site_fract_x
_atom_site_fract_y
_atom_site_fract_z
     1  S          0.71810200       0.55213400       0.96868800
     2  S          0.28189800       0.05213400       0.53131200
     3  S          0.28189800       0.44786600       0.03131200
     4  S          0.71810200       0.94786600       0.46868800
     5  C          0.65706900       0.41354150       0.00969800
     6  C          0.34293100       0.91354150       0.49030200
     7  C          0.34293100       0.58645850       0.99030200
     8  C          0.65706900       0.08645850       0.50969800
     9  N          0.57312800       0.38185130       0.96511300
    10  N          0.42687200       0.88185130       0.53488700
    11  N          0.42687200       0.61814870       0.03488700
    12  N          0.57312800       0.11814870       0.46511300
    13  C          0.53997900       0.47294160       0.88686100
    14  C          0.46002100       0.97294160       0.61313900
    15  C          0.46002100       0.52705840       0.11313900
    16  C          0.53997900       0.02705840       0.38686100
    17  H          0.49490000       0.55540000       0.89180000
    18  H          0.50510000       0.05540000       0.60820000
    19  H          0.50510000       0.44460000       0.10820000
    20  H          0.49490000       0.94460000       0.39180000
    21  H          0.50850000       0.40050000       0.83980000
    22  H          0.49150000       0.90050000       0.66020000
    23  H          0.49150000       0.59950000       0.16020000
    24  H          0.50850000       0.09950000       0.33980000
    25  C          0.62372100       0.55316160       0.86997100
    26  C          0.37627900       0.05316160       0.63002900
    27  C          0.37627900       0.44683840       0.13002900
    28  C          0.62372100       0.94683840       0.36997100
    29  H          0.60820000       0.66450000       0.85010000
    30  H          0.39180000       0.16450000       0.64990000
    31  H          0.39180000       0.33550000       0.14990000
    32  H          0.60820000       0.83550000       0.35010000
    33  H          0.64180000       0.49320000       0.82640000
    34  H          0.35820000      -0.00680000       0.67360000
    35  H          0.35820000       0.50680000       0.17360000
    36  H          0.64180000       0.00680000       0.32640000
    37  N          0.69562800       0.33796130       0.08518700
    38  N          0.30437200       0.83796130       0.41481300
    39  N          0.30437200       0.66203870       0.91481300
    40  N          0.69562800       0.16203870       0.58518700
    41  H          0.65691100       0.27091900       0.09911000
    42  H          0.34308900       0.77091900       0.40089000
    43  H          0.34308900       0.72908100       0.90089000
    44  H          0.65691100       0.22908100       0.59911000
    45  C          0.78769100       0.35555160       0.13277900
    46  C          0.21230900       0.85555160       0.36722100
    47  C          0.21230900       0.64444840       0.86722100
    48  C          0.78769100       0.14444840       0.63277900
    49  O          0.83410700       0.46494120       0.11898700
    50  O          0.16589300       0.96494120       0.38101300
    51  O          0.16589300       0.53505880       0.88101300
    52  O          0.83410700       0.03505880       0.61898700
    53  C          0.82698900       0.23440160       0.20004800
    54  C          0.17301100       0.73440160       0.29995200
    55  C          0.17301100       0.76559840       0.79995200
    56  C          0.82698900       0.26559840       0.70004800
    57  C          0.78104900       0.09311160       0.20665800
    58  C          0.21895100       0.59311160       0.29334200
    59  C          0.21895100       0.90688840       0.79334200
    60  C          0.78104900       0.40688840       0.70665800
    61  H          0.71990000       0.07570000       0.17010000
    62  H          0.28010000       0.57570000       0.32990000
    63  H          0.28010000       0.92430000       0.82990000
    64  H          0.71990000       0.42430000       0.67010000
    65  C          0.82339100       0.97571830       0.26643900
    66  C          0.17660900       0.47571830       0.23356100
    67  C          0.17660900       0.02428170       0.73356100
    68  C          0.82339100       0.52428170       0.76643900
    69  N          0.77778800       0.83437850       0.27306800
    70  N          0.22221200       0.33437850       0.22693200
    71  N          0.22221200       0.16562150       0.72693200
    72  N          0.77778800       0.66562150       0.77306800
    73  C          0.70036110       0.78127820       0.20282100
    74  C          0.29963890       0.28127820       0.29717900
    75  C          0.29963890       0.21872180       0.79717900
    76  C          0.70036110       0.71872180       0.70282100
    77  H          0.67100000       0.68820000       0.21980000
    78  H          0.32900000       0.18820000       0.28020000
    79  H          0.32900000       0.31180000       0.78020000
    80  H          0.67100000       0.81180000       0.71980000
    81  H          0.72280000       0.75160000       0.15580000
    82  H          0.27720000       0.25160000       0.34420000
    83  H          0.27720000       0.24840000       0.84420000
    84  H          0.72280000       0.74840000       0.65580000
    85  H          0.65490000       0.86820000       0.18530000
    86  H          0.34510000       0.36820000       0.31470000
    87  H          0.34510000       0.13180000       0.81470000
    88  H          0.65490000       0.63180000       0.68530000
    89  C          0.83290130       0.70508000       0.32292120
    90  C          0.16709870       0.20508000       0.17707880
    91  C          0.16709870       0.29492000       0.67707880
    92  C          0.83290130       0.79492000       0.82292120
    93  H          0.86030000       0.74110000       0.38110000
    94  H          0.13970000       0.24110000       0.11890000
    95  H          0.13970000       0.25890000       0.61890000
    96  H          0.86030000       0.75890000       0.88110000
    97  H          0.88240000       0.67520000       0.29950000
    98  H          0.11760000       0.17520000       0.20050000
    99  H          0.11760000       0.32480000       0.70050000
   100  H          0.88240000       0.82480000       0.79950000
   101  H          0.79300000       0.61210000       0.32170000
   102  H          0.20700000       0.11210000       0.17830000
   103  H          0.20700000       0.38790000       0.67830000
   104  H          0.79300000       0.88790000       0.82170000
   105  C          0.91399100       0.00780180       0.31939900
   106  C          0.08600900       0.50780180       0.18060100
   107  C          0.08600900      -0.00780180       0.68060100
   108  C          0.91399100       0.49219820       0.81939900
   109  H          0.94480000       0.93110000       0.36050000
   110  H          0.05520000       0.43110000       0.13950000
   111  H          0.05520000       0.06890000       0.63950000
   112  H          0.94480000       0.56890000       0.86050000
   113  C          0.95871100       0.14887180       0.31242900
   114  C          0.04128900       0.64887180       0.18757100
   115  C          0.04128900       0.85112820       0.68757100
   116  C          0.95871100       0.35112820       0.81242900
   117  H          0.01980000       0.16730000       0.34890000
   118  H          0.98020000       0.66730000       0.15110000
   119  H          0.98020000       0.83270000       0.65110000
   120  H          0.01980000       0.33270000       0.84890000
   121  C          0.91648100       0.26393170       0.25342900
   122  C          0.08351900       0.76393170       0.24657100
   123  C          0.08351900       0.73606830       0.74657100
   124  C          0.91648100       0.23606830       0.75342900
   125  H          0.94770000       0.36080000       0.24930000
   126  H          0.05230000       0.86080000       0.25070000
   127  H          0.05230000       0.63920000       0.75070000
   128  H          0.94770000       0.13920000       0.74930000
   129  C          0.58881900       0.52444150       0.40946800
   130  C          0.41118100       0.02444150       0.09053200
   131  C          0.41118100       0.47555850       0.59053200
   132  C          0.58881900       0.97555850       0.90946800
   133  C          0.51650900       0.62437150       0.42953800
   134  C          0.48349100       0.12437150       0.07046200
   135  C          0.48349100       0.37562850       0.57046200
   136  C          0.51650900       0.87562850       0.92953800
   137  O          0.43953600       0.64553110       0.37616600
   138  O          0.56046400       0.14553110       0.12383400
   139  O          0.56046400       0.35446890       0.62383400
   140  O          0.43953600       0.85446890       0.87616600
   141  O          0.54080600       0.68722110       0.50367600
   142  O          0.45919400       0.18722110      -0.00367600
   143  O          0.45919400       0.31277890       0.49632400
   144  O          0.54080600       0.81277890       0.00367600
   145  H          0.48041400       0.77830000       0.51741300
   146  H          0.51958600       0.27830000       0.98258700
   147  H          0.51958600       0.22170000       0.48258700
   148  H          0.48041400       0.72170000       0.01741300
   149  C          0.67665900       0.51205160       0.46765800
   150  C          0.32334100       0.01205160       0.03234200
   151  C          0.32334100       0.48794840       0.53234200
   152  C          0.67665900      -0.01205160       0.96765800
   153  H          0.68990000       0.56720000       0.51970000
   154  H          0.31010000       0.06720000       0.98030000
   155  H          0.31010000       0.43280000       0.48030000
   156  H          0.68990000       0.93280000       0.01970000
   157  C          0.74611900       0.41974150       0.45091900
   158  C          0.25388100       0.91974150       0.04908100
   159  C          0.25388100       0.58025850       0.54908100
   160  C          0.74611900       0.08025850       0.95091900
   161  N          0.83323800       0.40386140       0.51232800
   162  N          0.16676200       0.90386140       0.98767200
   163  N          0.16676200       0.59613860       0.48767200
   164  N          0.83323800       0.09613860       0.01232800
   165  C          0.87351100       0.54537180       0.56088900
   166  C          0.12648900       0.04537180       0.93911100
   167  C          0.12648900       0.45462820       0.43911100
   168  C          0.87351100       0.95462820       0.06088900
   169  H          0.92290000       0.51270000       0.61160000
   170  H          0.07710000       0.01270000       0.88840000
   171  H          0.07710000       0.48730000       0.38840000
   172  H          0.92290000      -0.01270000       0.11160000
   173  H          0.82530000       0.60320000       0.57700000
   174  H          0.17470000       0.10320000       0.92300000
   175  H          0.17470000       0.39680000       0.42300000
   176  H          0.82530000       0.89680000       0.07700000
   177  H          0.89940000       0.61540000       0.52680000
   178  H          0.10060000       0.11540000       0.97320000
   179  H          0.10060000       0.38460000       0.47320000
   180  H          0.89940000       0.88460000       0.02680000
   181  C          0.90205100       0.30402000       0.49243110
   182  C          0.09794900       0.80402000       0.00756890
   183  C          0.09794900       0.69598000       0.50756890
   184  C          0.90205100       0.19598000      -0.00756890
   185  H          0.87560000       0.19780000       0.47470000
   186  H          0.12440000       0.69780000       0.02530000
   187  H          0.12440000       0.80220000       0.52530000
   188  H          0.87560000       0.30220000       0.97470000
   189  H          0.95660000       0.29330000       0.54230000
   190  H          0.04340000       0.79330000       0.95770000
   191  H          0.04340000       0.70670000       0.45770000
   192  H          0.95660000       0.20670000       0.04230000
   193  H          0.92040000       0.35350000       0.44690000
   194  H          0.07960000       0.85350000       0.05310000
   195  H          0.07960000       0.64650000       0.55310000
   196  H          0.92040000       0.14650000       0.94690000
   197  C          0.72416100       0.34011160       0.37334900
   198  C          0.27583900       0.84011160       0.12665100
   199  C          0.27583900       0.65988840       0.62665100
   200  C          0.72416100       0.15988840       0.87334900
   201  H          0.76980000       0.27620000       0.36040000
   202  H          0.23020000       0.77620000       0.13960000
   203  H          0.23020000       0.72380000       0.63960000
   204  H          0.76980000       0.22380000       0.86040000
   205  C          0.63613100       0.35396160       0.31532900
   206  C          0.36386900       0.85396160       0.18467100
   207  C          0.36386900       0.64603840       0.68467100
   208  C          0.63613100       0.14603840       0.81532900
   209  H          0.62250000       0.29950000       0.26300000
   210  H          0.37750000       0.79950000       0.23700000
   211  H          0.37750000       0.70050000       0.73700000
   212  H          0.62250000       0.20050000       0.76300000
   213  C          0.56833900       0.44545160       0.33242800
   214  C          0.43166100       0.94545160       0.16757200
   215  C          0.43166100       0.55454840       0.66757200
   216  C          0.56833900       0.05454840       0.83242800
   217  H          0.50850000       0.45450000       0.29230000
   218  H          0.49150000       0.95450000       0.20770000
   219  H          0.49150000       0.54550000       0.70770000
   220  H          0.50850000       0.04550000       0.79230000
