data_SEQHIG
_symmetry_space_group_name_H-M    'P1'
_symmetry_Int_Tables_number       1
loop_
_symmetry_equiv_pos_site_id
_symmetry_equiv_pos_as_xyz
1 x,y,z
_cell_length_a                   14.45254
_cell_length_b                   20.86247
_cell_length_c                   7.83592
_cell_angle_alpha                90.0
_cell_angle_beta                 109.113317
_cell_angle_gamma                90.0
loop_
_atom_site_label
_atom_site_type_symbol
_atom_site_fract_x
_atom_site_fract_y
_atom_site_fract_z
     1  C          0.45005100       0.13809700       0.10428170
     2  C          0.95005100       0.63809700       0.10428170
     3  C          0.54994900       0.13809700       0.89571830
     4  C          0.04994900       0.63809700       0.89571830
     5  C          0.54994900       0.86190300       0.89571830
     6  C          0.04994900       0.36190300       0.89571830
     7  C          0.45005100       0.86190300       0.10428170
     8  C          0.95005100       0.36190300       0.10428170
     9  C          0.40523100       0.16772700       0.22152190
    10  C          0.90523100       0.66772700       0.22152190
    11  C          0.59476900       0.16772700       0.77847810
    12  C          0.09476900       0.66772700       0.77847810
    13  C          0.59476900       0.83227300       0.77847810
    14  C          0.09476900       0.33227300       0.77847810
    15  C          0.40523100       0.83227300       0.22152190
    16  C          0.90523100       0.33227300       0.22152190
    17  H          0.40270000       0.21240000       0.24290000
    18  H          0.90270000       0.71240000       0.24290000
    19  H          0.59730000       0.21240000       0.75710000
    20  H          0.09730000       0.71240000       0.75710000
    21  H          0.59730000       0.78760000       0.75710000
    22  H          0.09730000       0.28760000       0.75710000
    23  H          0.40270000       0.78760000       0.24290000
    24  H          0.90270000       0.28760000       0.24290000
    25  C          0.36678100       0.12033700       0.29721180
    26  C          0.86678100       0.62033700       0.29721180
    27  C          0.63321900       0.12033700       0.70278820
    28  C          0.13321900       0.62033700       0.70278820
    29  C          0.63321900       0.87966300       0.70278820
    30  C          0.13321900       0.37966300       0.70278820
    31  C          0.36678100       0.87966300       0.29721180
    32  C          0.86678100       0.37966300       0.29721180
    33  H          0.33190000       0.12570000       0.38010000
    34  H          0.83190000       0.62570000       0.38010000
    35  H          0.66810000       0.12570000       0.61990000
    36  H          0.16810000       0.62570000       0.61990000
    37  H          0.66810000       0.87430000       0.61990000
    38  H          0.16810000       0.37430000       0.61990000
    39  H          0.33190000       0.87430000       0.38010000
    40  H          0.83190000       0.37430000       0.38010000
    41  C          0.38909900       0.06041700       0.22756170
    42  C          0.88909900       0.56041700       0.22756170
    43  C          0.61090100       0.06041700       0.77243830
    44  C          0.11090100       0.56041700       0.77243830
    45  C          0.61090100       0.93958300       0.77243830
    46  C          0.11090100       0.43958300       0.77243830
    47  C          0.38909900       0.93958300       0.22756170
    48  C          0.88909900       0.43958300       0.22756170
    49  N          0.44102700       0.07269600       0.11221150
    50  N          0.94102700       0.57269600       0.11221150
    51  N          0.55897300       0.07269600       0.88778850
    52  N          0.05897300       0.57269600       0.88778850
    53  N          0.55897300       0.92730400       0.88778850
    54  N          0.05897300       0.42730400       0.88778850
    55  N          0.44102700       0.92730400       0.11221150
    56  N          0.94102700       0.42730400       0.11221150
    57  C          0.36432120      -0.00000000       0.27982000
    58  C          0.86432120       0.50000000       0.27982000
    59  C          0.63567880      -0.00000000       0.72018000
    60  C          0.13567880       0.50000000       0.72018000
    61  C          0.30437120      -0.00000000       0.40193000
    62  C          0.80437120       0.50000000       0.40193000
    63  C          0.69562880      -0.00000000       0.59807000
    64  C          0.19562880       0.50000000       0.59807000
    65  C          0.20476130      -0.00000000       0.33513000
    66  C          0.70476130       0.50000000       0.33513000
    67  C          0.79523870      -0.00000000       0.66487000
    68  C          0.29523870       0.50000000       0.66487000
    69  H          0.17230000      -0.00000000       0.20830000
    70  H          0.67230000       0.50000000       0.20830000
    71  H          0.82770000      -0.00000000       0.79170000
    72  H          0.32770000       0.50000000       0.79170000
    73  C          0.15089130      -0.00000000       0.45223000
    74  C          0.65089130       0.50000000       0.45223000
    75  C          0.84910870      -0.00000000       0.54777000
    76  C          0.34910870       0.50000000       0.54777000
    77  H          0.08140000      -0.00000000       0.40610000
    78  H          0.58140000       0.50000000       0.40610000
    79  H          0.91860000      -0.00000000       0.59390000
    80  H          0.41860000       0.50000000       0.59390000
    81  N          0.19734110      -0.00000000       0.63132000
    82  N          0.69734110       0.50000000       0.63132000
    83  N          0.80265890       0.00000000       0.36868000
    84  N          0.30265890       0.50000000       0.36868000
    85  H          0.16491600      -0.00000000       0.70630000
    86  H          0.66491600       0.50000000       0.70630000
    87  H          0.83508400       0.00000000       0.29370000
    88  H          0.33508400       0.50000000       0.29370000
    89  C          0.29535160      -0.00000000       0.70363000
    90  C          0.79535160       0.50000000       0.70363000
    91  C          0.70464840       0.00000000       0.29637000
    92  C          0.20464840       0.50000000       0.29637000
    93  H          0.32600000      -0.00000000       0.83090000
    94  H          0.82600000       0.50000000       0.83090000
    95  H          0.67400000       0.00000000       0.16910000
    96  H          0.17400000       0.50000000       0.16910000
    97  C          0.35107140      -0.00000000       0.58903000
    98  C          0.85107140       0.50000000       0.58903000
    99  C          0.64892860       0.00000000       0.41097000
   100  C          0.14892860       0.50000000       0.41097000
   101  H          0.42050000      -0.00000000       0.63750000
   102  H          0.92050000       0.50000000       0.63750000
   103  H          0.57950000       0.00000000       0.36250000
   104  H          0.07950000       0.50000000       0.36250000
   105  C          0.50000000       0.16963900      -0.00000000
   106  C          0.00000000       0.66963900      -0.00000000
   107  C          0.50000000       0.83036100      -0.00000000
   108  C         -0.00000000       0.33036100      -0.00000000
   109  C          0.50000000       0.24110900      -0.00000000
   110  C          0.00000000       0.74110900      -0.00000000
   111  C          0.50000000       0.75889100      -0.00000000
   112  C         -0.00000000       0.25889100      -0.00000000
   113  C          0.41285100       0.27567800       0.96240820
   114  C          0.91285100       0.77567800       0.96240820
   115  C          0.58714900       0.27567800       0.03759180
   116  C          0.08714900       0.77567800       0.03759180
   117  C          0.58714900       0.72432200       0.03759180
   118  C          0.08714900       0.22432200       0.03759180
   119  C          0.41285100       0.72432200       0.96240820
   120  C          0.91285100       0.22432200       0.96240820
   121  H          0.35220000       0.25360000       0.93450000
   122  H          0.85220000       0.75360000       0.93450000
   123  H          0.64780000       0.25360000       0.06550000
   124  H          0.14780000       0.75360000       0.06550000
   125  H          0.64780000       0.74640000       0.06550000
   126  H          0.14780000       0.24640000       0.06550000
   127  H          0.35220000       0.74640000       0.93450000
   128  H          0.85220000       0.24640000       0.93450000
   129  C          0.41470110       0.34188800       0.96568000
   130  C          0.91470110       0.84188800       0.96568000
   131  C          0.58529890       0.34188800       0.03432000
   132  C          0.08529890       0.84188800       0.03432000
   133  C          0.58529890       0.65811200       0.03432000
   134  C          0.08529890       0.15811200       0.03432000
   135  C          0.41470110       0.65811200       0.96568000
   136  C          0.91470110       0.15811200       0.96568000
   137  H          0.35580000       0.36560000       0.94370000
   138  H          0.85580000       0.86560000       0.94370000
   139  H          0.64420000       0.36560000       0.05630000
   140  H          0.14420000       0.86560000       0.05630000
   141  H          0.64420000       0.63440000       0.05630000
   142  H          0.14420000       0.13440000       0.05630000
   143  H          0.35580000       0.63440000       0.94370000
   144  H          0.85580000       0.13440000       0.94370000
   145  N          0.50000000       0.37216900      -0.00000000
   146  N          0.00000000       0.87216900      -0.00000000
   147  N          0.50000000       0.62783100      -0.00000000
   148  N         -0.00000000       0.12783100      -0.00000000
   149  H          0.50000000       0.41361200      -0.00000000
   150  H          0.00000000       0.91361200      -0.00000000
   151  H          0.50000000       0.58638800      -0.00000000
   152  H         -0.00000000       0.08638800      -0.00000000
   153  I         -0.00000000       0.16530560       0.50000000
   154  I          0.50000000       0.66530560       0.50000000
   155  I         -0.00000000       0.83469440       0.50000000
   156  I          0.50000000       0.33469440       0.50000000
   157  I          0.21295580       0.16940460       0.65330817
   158  I          0.71295580       0.66940460       0.65330817
   159  I          0.78704420       0.16940460       0.34669183
   160  I          0.28704420       0.66940460       0.34669183
   161  I          0.78704420       0.83059540       0.34669183
   162  I          0.28704420       0.33059540       0.34669183
   163  I          0.21295580       0.83059540       0.65330817
   164  I          0.71295580       0.33059540       0.65330817
   165  Cl         0.07996300      -0.00000000       0.87726600
   166  Cl         0.57996300       0.50000000       0.87726600
   167  Cl         0.92003700       0.00000000       0.12273400
   168  Cl         0.42003700       0.50000000       0.12273400
