data_SETRUG
_symmetry_space_group_name_H-M    'P1'
_symmetry_Int_Tables_number       1
loop_
_symmetry_equiv_pos_site_id
_symmetry_equiv_pos_as_xyz
1 x,y,z
_cell_length_a                   6.89892
_cell_length_b                   7.46863
_cell_length_c                   21.37509
_cell_angle_alpha                84.09601
_cell_angle_beta                 82.38101
_cell_angle_gamma                89.8432
loop_
_atom_site_label
_atom_site_type_symbol
_atom_site_fract_x
_atom_site_fract_y
_atom_site_fract_z
     1  O          0.35582000       0.56652000       0.24609700
     2  O          0.64418000       0.43348000       0.75390300
     3  H          0.28370000       0.58320000       0.28430000
     4  H          0.71630000       0.41680000       0.71570000
     5  O          0.50361190       0.22222000       0.93921300
     6  O          0.49638810       0.77778000       0.06078700
     7  O          0.57927190       0.44662000       0.30342700
     8  O          0.42072810       0.55338000       0.69657300
     9  O          0.76307190       0.18532000       0.99073300
    10  O          0.23692810       0.81468000       0.00926700
    11  H          0.82850000       0.16750000       0.94960000
    12  H          0.17150000       0.83250000       0.05040000
    13  C          0.85653000       0.43743000       0.18686900
    14  C          0.14347000       0.56257000       0.81313100
    15  H          0.88510000       0.33870000       0.21740000
    16  H          0.11490000       0.66130000       0.78260000
    17  H          0.91190000       0.54670000       0.19830000
    18  H          0.08810000       0.45330000       0.80170000
    19  C          0.47273000       0.27163000       0.04959900
    20  C          0.52727000       0.72837000       0.95040100
    21  H          0.53810000       0.37550000       0.06130000
    22  H          0.46190000       0.62450000       0.93870000
    23  H          0.48650000       0.17240000       0.08170000
    24  H          0.51350000       0.82760000       0.91830000
    25  C          0.57723000       0.22362000       0.98742100
    26  C          0.42277000       0.77638000       0.01257900
    27  C          0.25673000       0.31323000       0.05132900
    28  C          0.74327000       0.68677000       0.94867100
    29  H          0.18740000       0.20740000       0.04290000
    30  H          0.81260000       0.79260000       0.95710000
    31  H          0.23970000       0.40890000       0.01830000
    32  H          0.76030000       0.59110000       0.98170000
    33  C          0.95013000       0.40183000       0.12062900
    34  C          0.04987000       0.59817000       0.87937100
    35  H          0.88750000       0.29690000       0.10840000
    36  H          0.11250000       0.70310000       0.89160000
    37  H          0.92590000       0.50370000       0.09080000
    38  H          0.07410000       0.49630000       0.90920000
    39  C          0.52553000       0.48963000       0.25211900
    40  C          0.47447000       0.51037000       0.74788100
    41  C          0.16943000       0.37053000       0.11550900
    42  C          0.83057000       0.62947000       0.88449100
    43  H          0.19510000       0.27810000       0.14860000
    44  H          0.80490000       0.72190000       0.85140000
    45  H          0.23390000       0.48050000       0.12250000
    46  H          0.76610000       0.51950000       0.87750000
    47  C          0.63613000       0.45663000       0.18937900
    48  C          0.36387000       0.54337000       0.81062100
    49  H          0.61070000       0.55520000       0.15840000
    50  H          0.38930000       0.44480000       0.84160000
    51  H          0.58430000       0.34770000       0.17640000
    52  H          0.41570000       0.65230000       0.82360000
    53  N          0.77038000       0.82362000       0.63187700
    54  N          0.22962000       0.17638000       0.36812300
    55  H          0.69620000       0.71830000       0.65070000
    56  H          0.30380000       0.28170000       0.34930000
    57  H          0.68480000       0.91320000       0.62690000
    58  H          0.31520000       0.08680000       0.37310000
    59  N          0.86958000       0.79092000       0.57175700
    60  N          0.13042000       0.20908000       0.42824300
    61  H         -0.00630000       0.79480000       0.56980000
    62  H          0.00630000       0.20520000       0.43020000
    63  C          0.82747000       0.63313000       0.41892900
    64  C          0.17253000       0.36687000       0.58107100
    65  H          0.69370000       0.60960000       0.42430000
    66  H          0.30630000       0.39040000       0.57570000
    67  O          0.60238000       0.75783000       0.52445800
    68  O          0.39762000       0.24217000       0.47554200
    69  C          0.21923000       0.69333000       0.39983900
    70  C          0.78077000       0.30667000       0.60016100
    71  H          0.35380000       0.71290000       0.39370000
    72  H          0.64620000       0.28710000       0.60630000
    73  C          0.11323000       0.74073000       0.45502900
    74  C          0.88677000       0.25927000       0.54497100
    75  H          0.17510000       0.79180000       0.48510000
    76  H          0.82490000       0.20820000       0.51490000
    77  C          0.91197000       0.71062000       0.46478900
    78  C          0.08803000       0.28938000       0.53521100
    79  C          0.77947000       0.75573000       0.52319900
    80  C          0.22053000       0.24427000       0.47680100
    81  N          0.13812000       0.62082000       0.35497800
    82  N          0.86188000       0.37918000       0.64502200
    83  C          0.94487000       0.59103000       0.36480100
    84  C          0.05513000       0.40897000       0.63519900
    85  H          0.88680000       0.53970000       0.33390000
    86  H          0.11320000       0.46030000       0.66610000
    87  O          0.44197190       0.03842000       0.68768300
    88  O          0.55802810       0.96158000       0.31231700
    89  C          0.15073000       0.05012000       0.76119100
    90  C          0.84927000       0.94988000       0.23880900
    91  N          0.16482000       0.92868000       0.66040300
    92  N          0.83518000       0.07132000       0.33959700
    93  H          0.02460000       0.89680000       0.66620000
    94  H          0.97540000       0.10320000       0.33380000
    95  N          0.25662000       0.87107000       0.60275200
    96  N          0.74338000       0.12893000       0.39724800
    97  H          0.33070000       0.96850000       0.58170000
    98  H          0.66930000       0.03150000       0.41830000
    99  H          0.33590000       0.78490000       0.61280000
   100  H          0.66410000       0.21510000       0.38720000
   101  C          0.26633000       0.00592000       0.69967100
   102  C          0.73367000      -0.00592000       0.30032900
   103  C          0.14993000       0.09983000       0.86969100
   104  C          0.85007000       0.90017000       0.13030900
   105  H          0.21860000       0.10760000       0.90390000
   106  H          0.78140000       0.89240000       0.09610000
   107  C          0.94943000       0.07282000       0.76975100
   108  C          0.05057000       0.92718000       0.23024900
   109  H          0.87660000       0.06320000       0.73660000
   110  H          0.12340000       0.93680000       0.26340000
   111  C          0.25253000       0.06633000       0.81205100
   112  C          0.74747000       0.93367000       0.18794900
   113  H          0.38780000       0.05500000       0.80750000
   114  H          0.61220000       0.94500000       0.19250000
   115  N          0.95662000       0.12122000       0.87824300
   116  N          0.04338000       0.87878000       0.12175700
   117  C          0.85983000       0.11013000       0.82872100
   118  C          0.14017000       0.88987000       0.17127900
   119  H          0.72540000       0.12840000       0.83410000
   120  H          0.27460000       0.87160000       0.16590000
