data_SETWOD
_symmetry_space_group_name_H-M    'P1'
_symmetry_Int_Tables_number       1
loop_
_symmetry_equiv_pos_site_id
_symmetry_equiv_pos_as_xyz
1 x,y,z
_cell_length_a                   13.8248
_cell_length_b                   19.18811
_cell_length_c                   6.9703
_cell_angle_alpha                90.0
_cell_angle_beta                 90.0
_cell_angle_gamma                90.0
loop_
_atom_site_label
_atom_site_type_symbol
_atom_site_fract_x
_atom_site_fract_y
_atom_site_fract_z
     1  Br         0.60911000       0.40151000       0.23591000
     2  Br         0.89089000       0.09849000       0.23591000
     3  Br         0.10911000       0.59849000       0.26409000
     4  Br         0.39089000       0.90151000       0.26409000
     5  Br         0.39089000       0.59849000       0.76409000
     6  Br         0.10911000       0.90151000       0.76409000
     7  Br         0.89089000       0.40151000       0.73591000
     8  Br         0.60911000       0.09849000       0.73591000
     9  S          0.89061000       0.29131000       0.23293000
    10  S          0.60939000       0.20869000       0.23293000
    11  S          0.39061000       0.70869000       0.26707000
    12  S          0.10939000       0.79131000       0.26707000
    13  S          0.10939000       0.70869000       0.76707000
    14  S          0.39061000       0.79131000       0.76707000
    15  S          0.60939000       0.29131000       0.73293000
    16  S          0.89061000       0.20869000       0.73293000
    17  C          0.80815000       0.36193000       0.23431100
    18  C          0.69185000       0.13807000       0.23431100
    19  C          0.30815000       0.63807000       0.26568900
    20  C          0.19185000       0.86193000       0.26568900
    21  C          0.19185000       0.63807000       0.76568900
    22  C          0.30815000       0.86193000       0.76568900
    23  C          0.69185000       0.36193000       0.73431100
    24  C          0.80815000       0.13807000       0.73431100
    25  C          0.71114000       0.33853000       0.23281200
    26  C          0.78886000       0.16147000       0.23281200
    27  C          0.21114000       0.66147000       0.26718800
    28  C          0.28886000       0.83853000       0.26718800
    29  C          0.28886000       0.66147000       0.76718800
    30  C          0.21114000       0.83853000       0.76718800
    31  C          0.78886000       0.33853000       0.73281200
    32  C          0.71114000       0.16147000       0.73281200
    33  C          0.70514000       0.26693000       0.23311100
    34  C          0.79486000       0.23307000       0.23311100
    35  C          0.20514000       0.73307000       0.26688900
    36  C          0.29486000       0.76693000       0.26688900
    37  C          0.29486000       0.73307000       0.76688900
    38  C          0.20514000       0.76693000       0.76688900
    39  C          0.79486000       0.26693000       0.73311100
    40  C          0.70514000       0.23307000       0.73311100
    41  N          0.83474000       0.42862000       0.23471100
    42  N          0.66526000       0.07138000       0.23471100
    43  N          0.33474000       0.57138000       0.26528900
    44  N          0.16526000       0.92862000       0.26528900
    45  N          0.16526000       0.57138000       0.76528900
    46  N          0.33474000       0.92862000       0.76528900
    47  N          0.66526000       0.42862000       0.73471100
    48  N          0.83474000       0.07138000       0.73471100
    49  C          0.92985000       0.44263000       0.23541500
    50  C          0.57015000       0.05737000       0.23541500
    51  C          0.42985000       0.55737000       0.26458500
    52  C          0.07015000       0.94263000       0.26458500
    53  C          0.07015000       0.55737000       0.76458500
    54  C          0.42985000       0.94263000       0.76458500
    55  C          0.57015000       0.44263000       0.73541500
    56  C          0.92985000       0.05737000       0.73541500
    57  N          0.00685000       0.46103000       0.24051500
    58  N          0.49315000       0.03897000       0.24051500
    59  N          0.50685000       0.53897000       0.25948500
    60  N         -0.00685000       0.96103000       0.25948500
    61  N         -0.00685000       0.53897000       0.75948500
    62  N          0.50685000       0.96103000       0.75948500
    63  N          0.49315000       0.46103000       0.74051500
    64  N          0.00685000       0.03897000       0.74051500
    65  C          0.74738000       0.71463000       0.97861100
    66  C          0.75262000       0.78537000       0.97861100
    67  C          0.24738000       0.28537000       0.52138900
    68  C          0.25262000       0.21463000       0.52138900
    69  C          0.25262000       0.28537000       0.02138900
    70  C          0.24738000       0.21463000       0.02138900
    71  C          0.75262000       0.71463000       0.47861100
    72  C          0.74738000       0.78537000       0.47861100
    73  S          0.63722000       0.67191000      -0.01926000
    74  S          0.86278000       0.82809000      -0.01926000
    75  S          0.13722000       0.32809000       0.51926000
    76  S          0.36278000       0.17191000       0.51926000
    77  S          0.36278000       0.32809000       0.01926000
    78  S          0.13722000       0.17191000       0.01926000
    79  S          0.86278000       0.67191000       0.48074000
    80  S          0.63722000       0.82809000       0.48074000
    81  C          0.68601000       0.58996000      -0.01938500
    82  C          0.81399000       0.91004000      -0.01938500
    83  C          0.18601000       0.41004000       0.51938500
    84  C          0.31399000       0.08996000       0.51938500
    85  C          0.31399000       0.41004000       0.01938500
    86  C          0.18601000       0.08996000       0.01938500
    87  C          0.81399000       0.58996000       0.48061500
    88  C          0.68601000       0.91004000       0.48061500
    89  C          0.77701000       0.58375000       0.97181400
    90  C          0.72299000       0.91625000       0.97181400
    91  C          0.27701000       0.41625000       0.52818600
    92  C          0.22299000       0.08375000       0.52818600
    93  C          0.22299000       0.41625000       0.02818600
    94  C          0.27701000       0.08375000       0.02818600
    95  C          0.72299000       0.58375000       0.47181400
    96  C          0.77701000       0.91625000       0.47181400
    97  S          0.84672000       0.66061000       0.97314000
    98  S          0.65328000       0.83939000       0.97314000
    99  S          0.34672000       0.33939000       0.52686000
   100  S          0.15328000       0.16061000       0.52686000
   101  S          0.15328000       0.33939000       0.02686000
   102  S          0.34672000       0.16061000       0.02686000
   103  S          0.65328000       0.66061000       0.47314000
   104  S          0.84672000       0.83939000       0.47314000
   105  H          0.64520000       0.54950000      -0.01260000
   106  H          0.85480000       0.95050000      -0.01260000
   107  H          0.14520000       0.45050000       0.51260000
   108  H          0.35480000       0.04950000       0.51260000
   109  H          0.35480000       0.45050000       0.01260000
   110  H          0.14520000       0.04950000       0.01260000
   111  H          0.85480000       0.54950000       0.48740000
   112  H          0.64520000       0.95050000       0.48740000
   113  H          0.80700000       0.53870000       0.96420000
   114  H          0.69300000       0.96130000       0.96420000
   115  H          0.30700000       0.46130000       0.53580000
   116  H          0.19300000       0.03870000       0.53580000
   117  H          0.19300000       0.46130000       0.03580000
   118  H          0.30700000       0.03870000       0.03580000
   119  H          0.69300000       0.53870000       0.46420000
   120  H          0.80700000       0.96130000       0.46420000
