data_SEZDIL
_symmetry_space_group_name_H-M    'P1'
_symmetry_Int_Tables_number       1
loop_
_symmetry_equiv_pos_site_id
_symmetry_equiv_pos_as_xyz
1 x,y,z
_cell_length_a                   5.22984
_cell_length_b                   9.384912
_cell_length_c                   14.485818
_cell_angle_alpha                83.8535
_cell_angle_beta                 88.2307
_cell_angle_gamma                88.2217
loop_
_atom_site_label
_atom_site_type_symbol
_atom_site_fract_x
_atom_site_fract_y
_atom_site_fract_z
     1  O          0.81383000       0.20892000       0.16182130
     2  O          0.18617000       0.79108000       0.83817870
     3  N          0.95714000       0.40122000       0.22662160
     4  N          0.04286000       0.59878000       0.77337840
     5  N          0.75335000       0.43073000       0.08607190
     6  N          0.24665000       0.56927000       0.91392810
     7  C          0.83915000       0.34133000       0.15762000
     8  C          0.16085000       0.65867000       0.84238000
     9  C          0.03505000       0.31083000       0.30852000
    10  C          0.96495000       0.68917000       0.69148000
    11  C          0.23185000       0.20983000       0.29762000
    12  C          0.76815000       0.79017000       0.70238000
    13  H          0.30570000       0.20140000       0.23760000
    14  H          0.69430000       0.79860000       0.76240000
    15  C          0.31975000       0.12223000       0.37282000
    16  C          0.68025000       0.87777000       0.62718000
    17  H          0.45360000       0.05350000       0.36490000
    18  H          0.54640000       0.94650000       0.63510000
    19  C          0.21266000       0.13473000       0.46012000
    20  C          0.78734000       0.86527000       0.53988000
    21  H          0.27070000       0.07370000       0.51230000
    22  H          0.72930000       0.92630000       0.48770000
    23  C          0.02025000       0.23643000       0.47102000
    24  C         -0.02025000       0.76357000       0.52898000
    25  H          0.95020000       0.24540000       0.53140000
    26  H          0.04980000       0.75460000       0.46860000
    27  C          0.92555000       0.32623000       0.39602000
    28  C          0.07445000       0.67377000       0.60398000
    29  C          0.71165000       0.43113000       0.41782000
    30  C          0.28835000       0.56887000       0.58218000
    31  H          0.77840000       0.49460000       0.46120000
    32  H          0.22160000       0.50540000       0.53880000
    33  H          0.57370000       0.37530000       0.45160000
    34  H          0.42630000       0.62470000       0.54840000
    35  C          0.59025000       0.52593000       0.33872000
    36  C          0.40975000       0.47407000       0.66128000
    37  H          0.50710000       0.46450000       0.29760000
    38  H          0.49290000       0.53550000       0.70240000
    39  H          0.45520000       0.58770000       0.36460000
    40  H          0.54480000       0.41230000       0.63540000
    41  C          0.77795000       0.61983000       0.28142000
    42  C          0.22205000       0.38017000       0.71858000
    43  C          0.96275000       0.55423000       0.22754190
    44  C          0.03725000       0.44577000       0.77245810
    45  C          0.14575000       0.63423000       0.17592000
    46  C          0.85425000       0.36577000       0.82408000
    47  H          0.27130000       0.58800000       0.13980000
    48  H          0.72870000       0.41200000       0.86020000
    49  C          0.14515000       0.78153000       0.17702000
    50  C          0.85485000       0.21847000       0.82298000
    51  H          0.27030000       0.83660000       0.14160000
    52  H          0.72970000       0.16340000       0.85840000
    53  C          0.96166000       0.84843000       0.22972000
    54  C          0.03834000       0.15157000       0.77028000
    55  H          0.96040000       0.94950000       0.23050000
    56  H          0.03960000       0.05050000       0.76950000
    57  C          0.77966000       0.76723000       0.28132000
    58  C          0.22034000       0.23277000       0.71868000
    59  H          0.65400000       0.81360000       0.31730000
    60  H          0.34600000       0.18640000       0.68270000
    61  H          0.66160000       0.39030000       0.04720000
    62  H          0.33840000       0.60970000       0.95280000
    63  H          0.77250000       0.52530000       0.08201900
    64  H          0.22750000       0.47470000       0.91798100
    65  O          0.45874000       0.08462000       0.08699140
    66  O          0.54126000       0.91538000       0.91300860
    67  O          0.37404000       0.28142000       0.98981850
    68  O          0.62596000       0.71858000       0.01018150
    69  C          0.32945000       0.16104000       0.02212000
    70  C          0.67055000       0.83896000       0.97788000
    71  H          0.18730000       0.11720000      -0.00150000
    72  H          0.81270000       0.88280000       0.00150000
    73  H          0.60370000       0.14340000       0.11230000
    74  H          0.39630000       0.85660000       0.88770000
