data_SEZQUN
_symmetry_space_group_name_H-M    'P1'
_symmetry_Int_Tables_number       1
loop_
_symmetry_equiv_pos_site_id
_symmetry_equiv_pos_as_xyz
1 x,y,z
_cell_length_a                   15.95998
_cell_length_b                   8.61524
_cell_length_c                   14.94527
_cell_angle_alpha                90.0
_cell_angle_beta                 96.8322
_cell_angle_gamma                90.0
loop_
_atom_site_label
_atom_site_type_symbol
_atom_site_fract_x
_atom_site_fract_y
_atom_site_fract_z
     1  F          0.35821400       0.38508700       0.55861500
     2  F          0.64178600       0.38508700       0.94138500
     3  F          0.85821400       0.88508700       0.55861500
     4  F          0.14178600       0.88508700       0.94138500
     5  F          0.64178600       0.61491300       0.44138500
     6  F          0.35821400       0.61491300       0.05861500
     7  F          0.14178600       0.11491300       0.44138500
     8  F          0.85821400       0.11491300       0.05861500
     9  C          0.42845600       0.43919120       0.52906700
    10  C          0.57154400       0.43919120       0.97093300
    11  C          0.92845600       0.93919120       0.52906700
    12  C          0.07154400       0.93919120       0.97093300
    13  C          0.57154400       0.56080880       0.47093300
    14  C          0.42845600       0.56080880       0.02906700
    15  C          0.07154400       0.06080880       0.47093300
    16  C          0.92845600       0.06080880       0.02906700
    17  C          0.43954600       0.60539120       0.52980700
    18  C          0.56045400       0.60539120       0.97019300
    19  C          0.93954600       0.10539120       0.52980700
    20  C          0.06045400       0.10539120       0.97019300
    21  C          0.56045400       0.39460880       0.47019300
    22  C          0.43954600       0.39460880       0.02980700
    23  C          0.06045400       0.89460880       0.47019300
    24  C          0.93954600       0.89460880       0.02980700
    25  C          0.51586600       0.66165120       0.49848700
    26  C          0.48413400       0.66165120       0.00151300
    27  C          0.01586600       0.16165120       0.49848700
    28  C          0.98413400       0.16165120       0.00151300
    29  C          0.48413400       0.33834880       0.50151300
    30  C          0.51586600       0.33834880      -0.00151300
    31  C          0.98413400       0.83834880       0.50151300
    32  C          0.01586600       0.83834880      -0.00151300
    33  H          0.52677100       0.76998300       0.49730900
    34  H          0.47322900       0.76998300       0.00269100
    35  H          0.02677100       0.26998300       0.49730900
    36  H          0.97322900       0.26998300       0.00269100
    37  H          0.47322900       0.23001700       0.50269100
    38  H          0.52677100       0.23001700      -0.00269100
    39  H          0.97322900       0.73001700       0.50269100
    40  H          0.02677100       0.73001700      -0.00269100
    41  C          0.38211600       0.70731120       0.55884700
    42  C          0.61788400       0.70731120       0.94115300
    43  C          0.88211600       0.20731120       0.55884700
    44  C          0.11788400       0.20731120       0.94115300
    45  C          0.61788400       0.29268880       0.44115300
    46  C          0.38211600       0.29268880       0.05884700
    47  C          0.11788400       0.79268880       0.44115300
    48  C          0.88211600       0.79268880       0.05884700
    49  N          0.23765600       0.64308110       0.61077700
    50  N          0.76234400       0.64308110       0.88922300
    51  N          0.73765600       0.14308110       0.61077700
    52  N          0.26234400       0.14308110       0.88922300
    53  N          0.76234400       0.35691890       0.38922300
    54  N          0.23765600       0.35691890       0.11077700
    55  N          0.26234400       0.85691890       0.38922300
    56  N          0.73765600       0.85691890       0.11077700
    57  C          0.30277700       0.66537120       0.58831700
    58  C          0.69722300       0.66537120       0.91168300
    59  C          0.80277700       0.16537120       0.58831700
    60  C          0.19722300       0.16537120       0.91168300
    61  C          0.69722300       0.33462880       0.41168300
    62  C          0.30277700       0.33462880       0.08831700
    63  C          0.19722300       0.83462880       0.41168300
    64  C          0.80277700       0.83462880       0.08831700
    65  N          0.41170600       0.00200120       0.56201700
    66  N          0.58829400       0.00200120       0.93798300
    67  N          0.91170600       0.50200120       0.56201700
    68  N          0.08829400       0.50200120       0.93798300
    69  N          0.58829400      -0.00200120       0.43798300
    70  N          0.41170600      -0.00200120       0.06201700
    71  N          0.08829400       0.49799880       0.43798300
    72  N          0.91170600       0.49799880       0.06201700
    73  C          0.39859700       0.87101130       0.55984700
    74  C          0.60140300       0.87101130       0.94015300
    75  C          0.89859700       0.37101130       0.55984700
    76  C          0.10140300       0.37101130       0.94015300
    77  C          0.60140300       0.12898870       0.44015300
    78  C          0.39859700       0.12898870       0.05984700
    79  C          0.10140300       0.62898870       0.44015300
    80  C          0.89859700       0.62898870       0.05984700
    81  C          0.50000000       0.78997170       0.75000000
    82  C          0.00000000       0.28997170       0.75000000
    83  C          0.50000000       0.21002830       0.25000000
    84  C         -0.00000000       0.71002830       0.25000000
    85  H          0.50000100       0.90024100       0.75000200
    86  H          0.00000100       0.40024100       0.75000200
    87  H          0.49999900       0.09975900       0.24999800
    88  H         -0.00000100       0.59975900       0.24999800
    89  C          0.43267700       0.71100120       0.78037700
    90  C          0.56732300       0.71100120       0.71962300
    91  C          0.93267700       0.21100120       0.78037700
    92  C          0.06732300       0.21100120       0.71962300
    93  C          0.56732300       0.28899880       0.21962300
    94  C          0.43267700       0.28899880       0.28037700
    95  C          0.06732300       0.78899880       0.21962300
    96  C          0.93267700       0.78899880       0.28037700
    97  C          0.36442800       0.79363150       0.81239800
    98  C          0.63557200       0.79363150       0.68760200
    99  C          0.86442800       0.29363150       0.81239800
   100  C          0.13557200       0.29363150       0.68760200
   101  C          0.63557200       0.20636850       0.18760200
   102  C          0.36442800       0.20636850       0.31239800
   103  C          0.13557200       0.70636850       0.18760200
   104  C          0.86442800       0.70636850       0.31239800
   105  H          0.36518600       0.90387500       0.81353600
   106  H          0.63481400       0.90387500       0.68646400
   107  H          0.86518600       0.40387500       0.81353600
   108  H          0.13481400       0.40387500       0.68646400
   109  H          0.63481400       0.09612500       0.18646400
   110  H          0.36518600       0.09612500       0.31353600
   111  H          0.13481400       0.59612500       0.18646400
   112  H          0.86518600       0.59612500       0.31353600
   113  C          0.29849800       0.71605180       0.84116800
   114  C          0.70150200       0.71605180       0.65883200
   115  C          0.79849800       0.21605180       0.84116800
   116  C          0.20150200       0.21605180       0.65883200
   117  C          0.70150200       0.28394820       0.15883200
   118  C          0.29849800       0.28394820       0.34116800
   119  C          0.20150200       0.78394820       0.15883200
   120  C          0.79849800       0.78394820       0.34116800
   121  H          0.25345700       0.77211500       0.86220600
   122  H          0.74654300       0.77211500       0.63779400
   123  H          0.75345700       0.27211500       0.86220600
   124  H          0.24654300       0.27211500       0.63779400
   125  H          0.74654300       0.22788500       0.13779400
   126  H          0.25345700       0.22788500       0.36220600
   127  H          0.24654300       0.72788500       0.13779400
   128  H          0.75345700       0.72788500       0.36220600
   129  C          0.29685800       0.55211180       0.83982800
   130  C          0.70314200       0.55211180       0.66017200
   131  C          0.79685800       0.05211180       0.83982800
   132  C          0.20314200       0.05211180       0.66017200
   133  C          0.70314200       0.44788820       0.16017200
   134  C          0.29685800       0.44788820       0.33982800
   135  C          0.20314200       0.94788820       0.16017200
   136  C          0.79685800       0.94788820       0.33982800
   137  H          0.25024900       0.49906200       0.85966400
   138  H          0.74975100       0.49906200       0.64033600
   139  H          0.75024900      -0.00093800       0.85966400
   140  H          0.24975100      -0.00093800       0.64033600
   141  H          0.74975100       0.50093800       0.14033600
   142  H          0.25024900       0.50093800       0.35966400
   143  H          0.24975100       0.00093800       0.14033600
   144  H          0.75024900       0.00093800       0.35966400
   145  C          0.36088700       0.46854150       0.81059800
   146  C          0.63911300       0.46854150       0.68940200
   147  C          0.86088700       0.96854150       0.81059800
   148  C          0.13911300       0.96854150       0.68940200
   149  C          0.63911300       0.53145850       0.18940200
   150  C          0.36088700       0.53145850       0.31059800
   151  C          0.13911300       0.03145850       0.18940200
   152  C          0.86088700       0.03145850       0.31059800
   153  H          0.35820900       0.35838300       0.81071800
   154  H          0.64179100       0.35838300       0.68928200
   155  H          0.85820900       0.85838300       0.81071800
   156  H          0.14179100       0.85838300       0.68928200
   157  H          0.64179100       0.64161700       0.18928200
   158  H          0.35820900       0.64161700       0.31071800
   159  H          0.14179100       0.14161700       0.18928200
   160  H          0.85820900       0.14161700       0.31071800
   161  C          0.43198600       0.54379120       0.77974700
   162  C          0.56801400       0.54379120       0.72025300
   163  C          0.93198600       0.04379120       0.77974700
   164  C          0.06801400       0.04379120       0.72025300
   165  C          0.56801400       0.45620880       0.22025300
   166  C          0.43198600       0.45620880       0.27974700
   167  C          0.06801400       0.95620880       0.22025300
   168  C          0.93198600       0.95620880       0.27974700
   169  C          0.50000000       0.46124170       0.75000000
   170  C          0.00000000       0.96124170       0.75000000
   171  C          0.50000000       0.53875830       0.25000000
   172  C         -0.00000000       0.03875830       0.25000000
   173  C          0.50000000       0.28545180       0.75000000
   174  C          0.00000000       0.78545180       0.75000000
   175  C          0.50000000       0.71454820       0.25000000
   176  C         -0.00000000       0.21454820       0.25000000
