data_SIBFAK
_symmetry_space_group_name_H-M    'P1'
_symmetry_Int_Tables_number       1
loop_
_symmetry_equiv_pos_site_id
_symmetry_equiv_pos_as_xyz
1 x,y,z
_cell_length_a                   13.4111
_cell_length_b                   14.8741
_cell_length_c                   7.4031
_cell_angle_alpha                96.0218
_cell_angle_beta                 96.741
_cell_angle_gamma                100.3197
loop_
_atom_site_label
_atom_site_type_symbol
_atom_site_fract_x
_atom_site_fract_y
_atom_site_fract_z
     1  F          0.32291000       0.07441000       0.55883000
     2  F          0.67709000       0.92559000       0.44117000
     3  F          0.33942000       0.92029000       0.68673000
     4  F          0.66058000       0.07971000       0.31327000
     5  F          0.69532000       0.02832000       0.85113000
     6  F          0.30468000       0.97168000       0.14887000
     7  F          0.67812000       0.18161000       0.72333000
     8  F          0.32188000       0.81839000       0.27667000
     9  N          0.32463000       0.26852000       0.43435000
    10  N          0.67537000       0.73148000       0.56565000
    11  N          0.63683000       0.35932000       0.57455000
    12  N          0.36317000       0.64068000       0.42545000
    13  N          0.37843000       0.75227000       0.87546000
    14  N          0.62157000       0.24773000       0.12454000
    15  N          0.69623000       0.84197000      -0.01674000
    16  N          0.30377000       0.15803000       0.01674000
    17  C          0.49903000       0.13772000       0.63524000
    18  C          0.50097000       0.86228000       0.36476000
    19  C          0.41633000       0.06492000       0.63315000
    20  C          0.58367000       0.93508000       0.36685000
    21  C          0.42463000       0.98498000       0.69995000
    22  C          0.57537000       0.01502000       0.30005000
    23  C          0.51873000       0.96498000       0.77755000
    24  C          0.48127000       0.03502000       0.22245000
    25  C          0.60133000       0.03812000       0.77985000
    26  C          0.39867000       0.96188000       0.22015000
    27  C          0.59303000       0.11792000       0.71355000
    28  C          0.40697000       0.88208000       0.28645000
    29  C          0.49113000       0.22112000       0.56535000
    30  C          0.50887000       0.77888000       0.43465000
    31  C          0.39593000       0.24332000       0.49305000
    32  C          0.60407000       0.75668000       0.50695000
    33  C          0.57473000       0.29563000       0.57275000
    34  C          0.42527000       0.70437000       0.42725000
    35  C          0.52753000       0.88108000       0.84515000
    36  C          0.47247000       0.11892000       0.15485000
    37  C          0.44334000       0.81087000       0.85786000
    38  C          0.55666000       0.18913000       0.14214000
    39  C          0.62284000       0.86197000       0.92056000
    40  C          0.37716000       0.13803000       0.07944000
    41  N          0.21422000       0.47642000       0.16784000
    42  N          0.78578000       0.52358000       0.83216000
    43  N          0.16612000       0.54562000       0.16194000
    44  N          0.83388000       0.45438000       0.83806000
    45  N          0.02552000       0.45382000       0.25354000
    46  N          0.97448000       0.54618000       0.74646000
    47  N          0.07712000       0.38662000       0.25384000
    48  N          0.92288000       0.61338000       0.74616000
    49  C          0.18743000       0.41642000       0.30245000
    50  C          0.81257000       0.58358000       0.69755000
    51  C          0.08063000       0.53742000       0.24345000
    52  C          0.91937000       0.46258000       0.75655000
    53  C          0.03583000       0.62022000       0.27475000
    54  C          0.96417000       0.37978000       0.72525000
    55  C          0.09793000       0.70533000       0.29677000
    56  C          0.90207000       0.29467000       0.70323000
    57  C          0.05693000       0.78453000       0.32397000
    58  C          0.94307000       0.21547000       0.67603000
    59  C          0.95337000       0.77853000       0.32725000
    60  C          0.04663000       0.22147000       0.67275000
    61  C          0.89227000       0.69253000       0.30716000
    62  C          0.10773000       0.30747000       0.69284000
    63  C          0.93187000       0.61313000       0.28225000
    64  C          0.06813000       0.38687000       0.71775000
    65  C          0.90836000       0.86473000       0.35127000
    66  C          0.09164000       0.13527000       0.64873000
    67  C          0.02323000       0.29422000       0.20715000
    68  C          0.97677000       0.70578000       0.79285000
    69  C          0.91787000       0.27593000       0.18176000
    70  C          0.08213000       0.72407000       0.81824000
    71  C          0.86577000       0.18673000       0.14417000
    72  C          0.13423000       0.81327000       0.85583000
    73  C          0.91716000       0.11493000       0.12707000
    74  C          0.08284000       0.88507000       0.87293000
    75  C          0.02184000       0.13323000       0.14867000
    76  C          0.97816000       0.86677000       0.85133000
    77  C          0.07623000       0.22243000       0.18846000
    78  C          0.92377000       0.77757000       0.81154000
    79  C          0.28643000       0.46632000       0.04215000
    80  C          0.71357000       0.53368000       0.95785000
    81  C          0.33333000       0.39023000       0.03766000
    82  C          0.66667000       0.60977000       0.96234000
    83  C          0.40053000       0.38193000       0.91194000
    84  C          0.59947000       0.61807000       0.08806000
    85  C          0.42083000       0.44573000       0.79634000
    86  C          0.57917000       0.55427000       0.20366000
    87  C          0.37473000       0.52193000       0.80434000
    88  C          0.62527000       0.47807000       0.19566000
    89  C          0.30673000       0.53232000       0.92745000
    90  C          0.69327000       0.46768000       0.07255000
    91  H          0.22210000       0.36530000       0.29840000
    92  H          0.77790000       0.63470000       0.70160000
    93  H          0.20470000       0.44890000       0.42630000
    94  H          0.79530000       0.55110000       0.57370000
    95  H          0.17100000       0.71010000       0.29350000
    96  H          0.82900000       0.28990000       0.70650000
    97  H          0.10110000       0.84490000       0.34130000
    98  H          0.89890000       0.15510000       0.65870000
    99  H          0.81980000       0.68750000       0.30940000
   100  H          0.18020000       0.31250000       0.69060000
   101  H          0.88750000       0.55270000       0.27100000
   102  H          0.11250000       0.44730000       0.72900000
   103  H          0.95830000       0.91870000       0.34350000
   104  H          0.04170000       0.08130000       0.65650000
   105  H          0.85130000       0.86230000       0.25830000
   106  H          0.14870000       0.13770000       0.74170000
   107  H          0.88470000       0.87250000       0.46840000
   108  H          0.11530000       0.12750000       0.53160000
   109  H          0.88060000       0.32630000       0.19020000
   110  H          0.11940000       0.67370000       0.80980000
   111  H          0.79110000       0.17360000       0.13050000
   112  H          0.20890000       0.82640000       0.86950000
   113  H          0.87930000       0.05140000       0.09920000
   114  H          0.12070000       0.94860000       0.90080000
   115  H          0.05810000       0.08240000       0.13460000
   116  H          0.94190000       0.91760000       0.86540000
   117  H          0.15150000       0.23520000       0.20370000
   118  H          0.84850000       0.76480000       0.79630000
   119  H          0.31900000       0.34410000       0.12030000
   120  H          0.68100000       0.65590000       0.87970000
   121  H          0.43500000       0.33020000       0.90770000
   122  H          0.56500000       0.66980000       0.09230000
   123  H          0.46800000       0.43750000       0.70730000
   124  H          0.53200000       0.56250000       0.29270000
   125  H          0.38970000       0.56790000       0.72230000
   126  H          0.61030000       0.43210000       0.27770000
   127  H          0.27300000       0.58540000       0.93280000
   128  H          0.72700000       0.41460000       0.06720000
