data_SICPUR
_symmetry_space_group_name_H-M    'P1'
_symmetry_Int_Tables_number       1
loop_
_symmetry_equiv_pos_site_id
_symmetry_equiv_pos_as_xyz
1 x,y,z
_cell_length_a                   6.38963
_cell_length_b                   7.86264
_cell_length_c                   25.314611
_cell_angle_alpha                83.1422
_cell_angle_beta                 87.7492
_cell_angle_gamma                89.7782
loop_
_atom_site_label
_atom_site_type_symbol
_atom_site_fract_x
_atom_site_fract_y
_atom_site_fract_z
     1  O          0.01288190       0.83222000       0.12678500
     2  O         -0.01288190       0.16778000       0.87321500
     3  O          0.97726140       0.69179120       0.33166400
     4  O          0.02273860       0.30820880       0.66833600
     5  N          0.72282170       0.82138150       0.37439400
     6  N          0.27717830       0.17861850       0.62560600
     7  C          0.71432190       0.83447160       0.27874500
     8  C          0.28567810       0.16552840       0.72125500
     9  C          0.79914190       0.78516160       0.32837500
    10  C          0.20085810       0.21483840       0.67162500
    11  N          0.43175170       0.97874150       0.23157400
    12  N          0.56824830       0.02125850       0.76842600
    13  N          0.08222000       0.11692180       0.33467600
    14  N          0.91778000       0.88307820       0.66532400
    15  C          0.49635000       0.73824000      -0.00532900
    16  C          0.50365000       0.26176000       0.00532900
    17  H          0.42930000       0.71660000       0.96420000
    18  H          0.57070000       0.28340000       0.03580000
    19  C          0.40274000       0.69113000       0.04365900
    20  C          0.59726000       0.30887000       0.95634100
    21  H          0.27200000       0.63850000       0.04650000
    22  H          0.72800000       0.36150000       0.95350000
    23  C          0.50333000       0.72213000       0.08925700
    24  C          0.49667000       0.27787000       0.91074300
    25  H          0.43960000       0.69090000       0.12270000
    26  H          0.56040000       0.30910000       0.87730000
    27  C          0.69733000       0.79902000       0.08490600
    28  C          0.30267000       0.20098000       0.91509400
    29  C          0.82192000       0.82642000       0.13149600
    30  C          0.17808000       0.17358000       0.86850400
    31  C          0.71792000       0.84754190       0.18389500
    32  C          0.28208000       0.15245810       0.81610500
    33  C          0.81552000       0.79338170       0.23171500
    34  C          0.18448000       0.20661830       0.76828500
    35  C          0.00642000       0.69679180       0.23784500
    36  C         -0.00642000       0.30320820       0.76215500
    37  H          0.08050000       0.66800000       0.20780000
    38  H          0.91950000       0.33200000       0.79220000
    39  C          0.07902190       0.64769170       0.28623500
    40  C          0.92097810       0.35230830       0.71376500
    41  C          0.26889190       0.54756170       0.29922600
    42  C          0.73110810       0.45243830       0.70077400
    43  C          0.38802000       0.47959190       0.25939700
    44  C          0.61198000       0.52040810       0.74060300
    45  H          0.34600000       0.49560000       0.22440000
    46  H          0.65400000       0.50440000       0.77560000
    47  C          0.56892000       0.38822000       0.27195800
    48  C          0.43108000       0.61178000       0.72804200
    49  H          0.64850000       0.34390000       0.24530000
    50  H          0.35150000       0.65610000       0.75470000
    51  C          0.63142000       0.36272000       0.32378800
    52  C          0.36858000       0.63728000       0.67621200
    53  H          0.75330000       0.30190000       0.33210000
    54  H          0.24670000       0.69810000       0.66790000
    55  C          0.33272000       0.51986190       0.35122600
    56  C          0.66728000       0.48013810       0.64877400
    57  H          0.25420000       0.56350000       0.37820000
    58  H          0.74580000       0.43650000       0.62180000
    59  C          0.51333000       0.42732000       0.36307800
    60  C          0.48667000       0.57268000       0.63692200
    61  H          0.55470000       0.40890000       0.39810000
    62  H          0.44530000       0.59110000       0.60190000
    63  C          0.54112000       0.91326170       0.37456500
    64  C          0.45888000       0.08673830       0.62543500
    65  N          0.47222000       0.94959180       0.42231500
    66  N          0.52778000       0.05040820       0.57768500
    67  H          0.54140000       0.91550000       0.45010000
    68  H          0.45860000       0.08450000       0.54990000
    69  H          0.35850000       0.00710000       0.42540000
    70  H          0.64150000      -0.00710000       0.57460000
    71  C          0.43603190       0.96353170       0.32748500
    72  C          0.56396810       0.03646830       0.67251500
    73  C          0.52439190       0.92744160       0.27828500
    74  C          0.47560810       0.07255840       0.72171500
    75  C          0.52852000       0.93700190       0.18739600
    76  C          0.47148000       0.06299810       0.81260400
    77  H          0.46380000       0.97070000       0.15560000
    78  H          0.53620000       0.02930000       0.84440000
    79  C          0.24052000       0.05091180       0.33048600
    80  C          0.75948000       0.94908820       0.66951400
    81  C          0.78943000       0.84563000       0.03459700
    82  C          0.21057000       0.15437000       0.96540300
    83  H          0.92100000       0.89670000       0.03120000
    84  H          0.07900000       0.10330000       0.96880000
    85  C          0.68755000       0.81664000       0.99003200
    86  C          0.31245000       0.18336000       0.00996800
    87  H          0.74860000       0.85050000       0.95650000
    88  H          0.25140000       0.14950000       0.04350000
    89  O          0.27893000       0.29363000       0.13990600
    90  O          0.72107000       0.70637000       0.86009400
    91  O          0.06252000       0.16439180       0.20126500
    92  O          0.93748000       0.83560820       0.79873500
    93  H          0.17240000       0.12640000       0.21350000
    94  H          0.82760000       0.87360000       0.78650000
    95  C          0.10293000       0.26292000       0.15685700
    96  C          0.89707000       0.73708000       0.84314300
    97  C          0.91186000       0.33294000       0.13015110
    98  C          0.08814000       0.66706000       0.86984890
    99  H          0.94470000       0.44060000       0.10950000
   100  H          0.05530000       0.55940000       0.89050000
   101  H          0.80410000       0.34930000       0.15660000
   102  H          0.19590000       0.65070000       0.84340000
   103  H          0.86380000       0.25380000       0.10720000
   104  H          0.13620000       0.74620000       0.89280000
   105  O         -0.01102000       0.72881190       0.45480500
   106  O          0.01102000       0.27118810       0.54519500
   107  H          0.89580000       0.75330000       0.43390000
   108  H          0.10420000       0.24670000       0.56610000
   109  O          0.77238000       0.84882000       0.50877500
   110  O          0.22762000       0.15118000       0.49122500
   111  C          0.93287000       0.77432000       0.50110600
   112  C          0.06713000       0.22568000       0.49889400
   113  C          0.08823000       0.72683000       0.54272700
   114  C          0.91177000       0.27317000       0.45727300
   115  H          0.05350000       0.78360000       0.57340000
   116  H          0.94650000       0.21640000       0.42660000
   117  H          0.22570000       0.76110000       0.52900000
   118  H          0.77430000       0.23890000       0.47100000
   119  H          0.08540000       0.60510000       0.55260000
   120  H          0.91460000       0.39490000       0.44740000
