data_SIHBET
_symmetry_space_group_name_H-M    'P1'
_symmetry_Int_Tables_number       1
loop_
_symmetry_equiv_pos_site_id
_symmetry_equiv_pos_as_xyz
1 x,y,z
_cell_length_a                   8.02235
_cell_length_b                   13.69011
_cell_length_c                   13.33461
_cell_angle_alpha                90.0
_cell_angle_beta                 101.5577
_cell_angle_gamma                90.0
loop_
_atom_site_label
_atom_site_type_symbol
_atom_site_fract_x
_atom_site_fract_y
_atom_site_fract_z
     1  Cl         0.08463700       0.85968400       0.61237400
     2  Cl         0.91536300       0.35968400       0.88762600
     3  Cl         0.91536300       0.14031600       0.38762600
     4  Cl         0.08463700       0.64031600       0.11237400
     5  N          0.95922000       0.72109130       0.34491130
     6  N          0.04078000       0.22109130       0.15508870
     7  N          0.04078000       0.27890870       0.65508870
     8  N          0.95922000       0.77890870       0.84491130
     9  C          0.88393000       0.64300150       0.37583160
    10  C          0.11607000       0.14300150       0.12416840
    11  C          0.11607000       0.35699850       0.62416840
    12  C          0.88393000       0.85699850       0.87583160
    13  N          0.86372000       0.62518130       0.47148130
    14  N          0.13628000       0.12518130       0.02851870
    15  N          0.13628000       0.37481870       0.52851870
    16  N          0.86372000       0.87481870       0.97148130
    17  N          0.89702000       0.67557140       0.63951140
    18  N          0.10298000       0.17557140       0.86048860
    19  N          0.10298000       0.32442860       0.36048860
    20  N          0.89702000       0.82442860       0.13951140
    21  H          0.85230000       0.62520000       0.64720000
    22  H          0.14770000       0.12520000       0.85280000
    23  H          0.14770000       0.37480000       0.35280000
    24  H          0.85230000       0.87480000       0.14720000
    25  H          0.93430000       0.71920000       0.69120000
    26  H          0.06570000       0.21920000       0.80880000
    27  H          0.06570000       0.28080000       0.30880000
    28  H          0.93430000       0.78080000       0.19120000
    29  C          0.92222000       0.69202150       0.54527150
    30  C          0.07778000       0.19202150       0.95472850
    31  C          0.07778000       0.30797850       0.45472850
    32  C          0.92222000       0.80797850       0.04527150
    33  C          0.00682000       0.77534150       0.51821150
    34  C         -0.00682000       0.27534150       0.98178850
    35  C         -0.00682000       0.22465850       0.48178850
    36  C          0.00682000       0.72465850       0.01821150
    37  C          0.02382000       0.78780150       0.41779150
    38  C          0.97618000       0.28780150       0.08220850
    39  C          0.97618000       0.21219850       0.58220850
    40  C          0.02382000       0.71219850       0.91779150
    41  C          0.81823000       0.56630160       0.29745160
    42  C          0.18177000       0.06630160       0.20254840
    43  C          0.18177000       0.43369840       0.70254840
    44  C          0.81823000       0.93369840       0.79745160
    45  H          0.80670000       0.59410000       0.22870000
    46  H          0.19330000       0.09410000       0.27130000
    47  H          0.19330000       0.40590000       0.77130000
    48  H          0.80670000       0.90590000       0.72870000
    49  H          0.70690000       0.54340000       0.30730000
    50  H          0.29310000       0.04340000       0.19270000
    51  H          0.29310000       0.45660000       0.69270000
    52  H          0.70690000       0.95660000       0.80730000
    53  H          0.89800000       0.51130000       0.30510000
    54  H          0.10200000       0.01130000       0.19490000
    55  H          0.10200000       0.48870000       0.69490000
    56  H          0.89800000       0.98870000       0.80510000
    57  C          0.10933000       0.87516160       0.38284170
    58  C          0.89067000       0.37516160       0.11715830
    59  C          0.89067000       0.12483840       0.61715830
    60  C          0.10933000       0.62483840       0.88284170
    61  H          0.16030000       0.85700000       0.32460000
    62  H          0.83970000       0.35700000       0.17540000
    63  H          0.83970000       0.14300000       0.67540000
    64  H          0.16030000       0.64300000       0.82460000
    65  H          0.19840000       0.89860000       0.43900000
    66  H          0.80160000       0.39860000       0.06100000
    67  H          0.80160000       0.10140000       0.56100000
    68  H          0.19840000       0.60140000       0.93900000
    69  H          0.02520000       0.92700000       0.36210000
    70  H          0.97480000       0.42700000       0.13790000
    71  H          0.97480000       0.07300000       0.63790000
    72  H          0.02520000       0.57300000       0.86210000
    73  O          0.70772000       0.45998120       0.49384120
    74  O          0.29228000       0.95998120       0.00615880
    75  O          0.29228000       0.54001880       0.50615880
    76  O          0.70772000       0.04001880      -0.00615880
    77  H          0.75750000       0.51930000       0.49230000
    78  H          0.24250000       0.01930000       0.00770000
    79  H          0.24250000       0.48070000       0.50770000
    80  H          0.75750000       0.98070000      -0.00770000
    81  O          0.72552000       0.48776120       0.66154120
    82  O          0.27448000       0.98776120       0.83845880
    83  O          0.27448000       0.51223880       0.33845880
    84  O          0.72552000       0.01223880       0.16154120
    85  C          0.59263000       0.34164160       0.58705170
    86  C          0.40737000       0.84164160       0.91294830
    87  C          0.40737000       0.65835840       0.41294830
    88  C          0.59263000       0.15835840       0.08705170
    89  C          0.55823000       0.30639170       0.67918170
    90  C          0.44177000       0.80639170       0.82081830
    91  C          0.44177000       0.69360830       0.32081830
    92  C          0.55823000       0.19360830       0.17918170
    93  H          0.59020000       0.34360000       0.74010000
    94  H          0.40980000       0.84360000       0.75990000
    95  H          0.40980000       0.65640000       0.25990000
    96  H          0.59020000       0.15640000       0.24010000
    97  C          0.47733000       0.21712170       0.68174170
    98  C          0.52267000       0.71712170       0.81825830
    99  C          0.52267000       0.78287830       0.31825830
   100  C          0.47733000       0.28287830       0.18174170
   101  H          0.45400000       0.19400000       0.74470000
   102  H          0.54600000       0.69400000       0.75530000
   103  H          0.54600000       0.80600000       0.25530000
   104  H          0.45400000       0.30600000       0.24470000
   105  C          0.42963000       0.16065160       0.59342170
   106  C          0.57037000       0.66065160       0.90657830
   107  C          0.57037000       0.83934840       0.40657830
   108  C          0.42963000       0.33934840       0.09342170
   109  C          0.46293000       0.19749170       0.50191170
   110  C          0.53707000       0.69749170      -0.00191170
   111  C          0.53707000       0.80250830       0.49808830
   112  C          0.46293000       0.30250830       0.00191170
   113  H          0.42950000       0.16080000       0.44070000
   114  H          0.57050000       0.66080000       0.05930000
   115  H          0.57050000       0.83920000       0.55930000
   116  H          0.42950000       0.33920000       0.94070000
   117  C          0.54373000       0.28656160       0.49835160
   118  C          0.45627000       0.78656160       0.00164840
   119  C          0.45627000       0.71343840       0.50164840
   120  C          0.54373000       0.21343840      -0.00164840
   121  H          0.56580000       0.31000000       0.43520000
   122  H          0.43420000       0.81000000       0.06480000
   123  H          0.43420000       0.69000000       0.56480000
   124  H          0.56580000       0.19000000       0.93520000
   125  C          0.68143000       0.43686160       0.58525160
   126  C          0.31857000       0.93686160       0.91474840
   127  C          0.31857000       0.56313840       0.41474840
   128  C          0.68143000       0.06313840       0.08525160
   129  C          0.34803000       0.06233180       0.59702190
   130  C          0.65197000       0.56233180       0.90297810
   131  C          0.65197000       0.93766820       0.40297810
   132  C          0.34803000       0.43766820       0.09702190
   133  H          0.24210000       0.05970000       0.54560000
   134  H          0.75790000       0.55970000       0.95440000
   135  H          0.75790000       0.94030000       0.45440000
   136  H          0.24210000       0.44030000       0.04560000
   137  H          0.32300000       0.05180000       0.66520000
   138  H          0.67700000       0.55180000       0.83480000
   139  H          0.67700000       0.94820000       0.33480000
   140  H          0.32300000       0.44820000       0.16520000
   141  H          0.42580000       0.01140000       0.58260000
   142  H          0.57420000       0.51140000       0.91740000
   143  H          0.57420000       0.98860000       0.41740000
   144  H          0.42580000       0.48860000       0.08260000
