data_SIHFOE
_symmetry_space_group_name_H-M    'P1'
_symmetry_Int_Tables_number       1
loop_
_symmetry_equiv_pos_site_id
_symmetry_equiv_pos_as_xyz
1 x,y,z
_cell_length_a                   8.5083
_cell_length_b                   10.0084
_cell_length_c                   15.3634
_cell_angle_alpha                82.543
_cell_angle_beta                 78.362
_cell_angle_gamma                83.023
loop_
_atom_site_label
_atom_site_type_symbol
_atom_site_fract_x
_atom_site_fract_y
_atom_site_fract_z
     1  I          0.09516200       0.72596100       0.65824100
     2  I          0.90483800       0.27403900       0.34175900
     3  P          0.18344700       0.16431600       0.62728400
     4  P          0.81655300       0.83568400       0.37271600
     5  P          0.34003700       0.91633400       0.70164400
     6  P          0.65996300       0.08366600       0.29835600
     7  N          0.23352000       0.05812000       0.70781000
     8  N          0.76648000       0.94188000       0.29219000
     9  N          0.35862000       0.85368000       0.80471000
    10  N          0.64138000       0.14632000       0.19529000
    11  C          0.34233000       0.28212000       0.59102000
    12  C          0.65767000       0.71788000       0.40898000
    13  C          0.37403000       0.34573000       0.66992000
    14  C          0.62597000       0.65427000       0.33008000
    15  C          0.29783000       0.39233000       0.51822000
    16  C          0.70217000       0.60767000       0.48178000
    17  C          0.49793000       0.19643000       0.55182000
    18  C          0.50207000       0.80357000       0.44818000
    19  C          0.97867000       0.24323000       0.66942000
    20  C          0.02133000       0.75677000       0.33058000
    21  C          0.91567000       0.35253000       0.60172000
    22  C          0.08433000       0.64747000       0.39828000
    23  C          0.97527000       0.30393000       0.75632000
    24  C          0.02473000       0.69607000       0.24368000
    25  C          0.87037000       0.12663000       0.68852000
    26  C          0.12963000       0.87337000       0.31148000
    27  C          0.16893000       0.08722000       0.53002000
    28  C          0.83107000       0.91278000       0.46998000
    29  C          0.51223000       0.75708000       0.80722000
    30  C          0.48777000       0.24292000       0.19278000
    31  C          0.49153000       0.65687000       0.89112000
    32  C          0.50847000       0.34313000       0.10888000
    33  C          0.42723000       0.72117000       0.97652000
    34  C          0.57277000       0.27883000       0.02348000
    35  C          0.26363000       0.79197000       0.96992000
    36  C          0.73637000       0.20803000       0.03008000
    37  C          0.25773000       0.90218000       0.88932000
    38  C          0.74227000       0.09782000       0.11068000
    39  C          0.55004000       0.67477000       0.72692000
    40  C          0.44996000       0.32523000       0.27308000
    41  C          0.65163000       0.84097000       0.80442000
    42  C          0.34837000       0.15903000       0.19558000
    43  C          0.08093000       0.92677000       0.88082000
    44  C          0.91907000       0.07323000       0.11918000
    45  C          0.31603000       0.03293000       0.90792000
    46  C          0.68397000       0.96707000       0.09208000
    47  H          0.46640000       0.39330000       0.65220000
    48  H          0.53360000       0.60670000       0.34780000
    49  H          0.29230000       0.40330000       0.70120000
    50  H          0.70770000       0.59670000       0.29880000
    51  H          0.39630000       0.28530000       0.71420000
    52  H          0.60370000       0.71470000       0.28580000
    53  H          0.39930000       0.44020000       0.48710000
    54  H          0.60070000       0.55980000       0.51290000
    55  H          0.25830000       0.35220000       0.47320000
    56  H          0.74170000       0.64780000       0.52680000
    57  H          0.23830000       0.45930000       0.54620000
    58  H          0.76170000       0.54070000       0.45380000
    59  H          0.58830000       0.25830000       0.53120000
    60  H          0.41170000       0.74170000       0.46880000
    61  H          0.52230000       0.11420000       0.60210000
    62  H          0.47770000       0.88580000       0.39790000
    63  H          0.48530000       0.16730000       0.49920000
    64  H          0.51470000       0.83270000       0.50080000
    65  H          0.79860000       0.38140000       0.62920000
    66  H          0.20140000       0.61860000       0.37080000
    67  H          0.96860000       0.43640000       0.59620000
    68  H          0.03140000       0.56360000       0.40380000
    69  H          0.91970000       0.30530000       0.53920000
    70  H          0.08030000       0.69470000       0.46080000
    71  H          0.86270000       0.32630000       0.78320000
    72  H          0.13730000       0.67370000       0.21680000
    73  H          0.02830000       0.24630000       0.79920000
    74  H          0.97170000       0.75370000       0.20080000
    75  H          0.02640000       0.39930000       0.74920000
    76  H          0.97360000       0.60070000       0.25080000
    77  H          0.77370000       0.16030000       0.71520000
    78  H          0.22630000       0.83970000       0.28480000
    79  H          0.86470000       0.09330000       0.63620000
    80  H          0.13530000       0.90670000       0.36380000
    81  H          0.91370000       0.04630000       0.72120000
    82  H          0.08630000       0.95370000       0.27880000
    83  H          0.12130000       0.15930000       0.48620000
    84  H          0.87870000       0.84070000       0.51380000
    85  H          0.27030000       0.05230000       0.50820000
    86  H          0.72970000       0.94770000       0.49180000
    87  H          0.11930000       0.01630000       0.55120000
    88  H          0.88070000       0.98370000       0.44880000
    89  H          0.42330000       0.59370000       0.88520000
    90  H          0.57670000       0.40630000       0.11480000
    91  H          0.59330000       0.60780000       0.89310000
    92  H          0.40670000       0.39220000       0.10690000
    93  H          0.49730000       0.77970000       0.98820000
    94  H          0.50270000       0.22030000       0.01180000
    95  H          0.42040000       0.64970000       0.02920000
    96  H          0.57960000       0.35030000       0.97080000
    97  H          0.22430000       0.83070000       0.02220000
    98  H          0.77570000       0.16930000       0.97780000
    99  H          0.19230000       0.73270000       0.95720000
   100  H          0.80770000       0.26730000       0.04280000
   101  H          0.46640000       0.62870000       0.72320000
   102  H          0.53360000       0.37130000       0.27680000
   103  H          0.57940000       0.74160000       0.67020000
   104  H          0.42060000       0.25840000       0.32980000
   105  H          0.63230000       0.60770000       0.73620000
   106  H          0.36770000       0.39230000       0.26380000
   107  H          0.65030000       0.89070000       0.86320000
   108  H          0.34970000       0.10930000       0.13680000
   109  H          0.74340000       0.79470000       0.79630000
   110  H          0.25660000       0.20530000       0.20370000
   111  H          0.65640000       0.90970000       0.75420000
   112  H          0.34360000       0.09030000       0.24580000
   113  H          0.05430000       0.86270000       0.84620000
   114  H          0.94570000       0.13730000       0.15380000
   115  H          0.03930000       0.91970000       0.93120000
   116  H          0.96070000       0.08030000       0.06880000
   117  H          0.06130000       0.01130000       0.84020000
   118  H          0.93870000      -0.01130000       0.15980000
   119  H          0.43130000       0.01030000       0.91720000
   120  H          0.56870000      -0.01030000       0.08280000
   121  H          0.31730000       0.09330000       0.85720000
   122  H          0.68270000       0.90670000       0.14280000
   123  H          0.24330000       0.06830000       0.96120000
   124  H          0.75670000       0.93170000       0.03880000
   125  C          0.97576000       0.55043000       0.91618000
   126  C          0.02424000       0.44957000       0.08382000
   127  C          0.10103000       0.45343000       0.92658000
   128  C          0.89897000       0.54657000       0.07342000
   129  C          0.87627000       0.59643000       0.98988000
   130  C          0.12373000       0.40357000       0.01012000
   131  H          0.97470000       0.58830000       0.84580000
   132  H          0.02530000       0.41170000       0.15420000
   133  H          0.16550000       0.40750000       0.88080000
   134  H          0.83450000       0.59250000       0.11920000
   135  H          0.80470000       0.65930000       0.98580000
   136  H          0.19530000       0.34070000       0.01420000
