data_SIHFIZ
_symmetry_space_group_name_H-M    'P1'
_symmetry_Int_Tables_number       1
loop_
_symmetry_equiv_pos_site_id
_symmetry_equiv_pos_as_xyz
1 x,y,z
_cell_length_a                   11.55917
_cell_length_b                   14.26613
_cell_length_c                   15.13069
_cell_angle_alpha                90.0
_cell_angle_beta                 98.4402
_cell_angle_gamma                90.0
loop_
_atom_site_label
_atom_site_type_symbol
_atom_site_fract_x
_atom_site_fract_y
_atom_site_fract_z
     1  N          0.47461000       0.92176100       0.37434900
     2  N          0.52539000       0.42176100       0.12565100
     3  N          0.52539000       0.07823900       0.62565100
     4  N          0.47461000       0.57823900       0.87434900
     5  N          0.57341000       0.96623100       0.36469900
     6  N          0.42659000       0.46623100       0.13530100
     7  N          0.42659000       0.03376900       0.63530100
     8  N          0.57341000       0.53376900       0.86469900
     9  C          0.28201000       0.09031000       0.18261000
    10  C          0.71799000       0.59031000       0.31739000
    11  C          0.71799000       0.90969000       0.81739000
    12  C          0.28201000       0.40969000       0.68261000
    13  C          0.38621000       0.13601000       0.17051000
    14  C          0.61379000       0.63601000       0.32949000
    15  C          0.61379000       0.86399000       0.82949000
    16  C          0.38621000       0.36399000       0.67051000
    17  C          0.37171000       0.23761000       0.19351000
    18  C          0.62829000       0.73761000       0.30649000
    19  C          0.62829000       0.76239000       0.80649000
    20  C          0.37171000       0.26239000       0.69351000
    21  C          0.23962000       0.24791000       0.15821000
    22  C          0.76038000       0.74791000       0.34179000
    23  C          0.76038000       0.75209000       0.84179000
    24  C          0.23962000       0.25209000       0.65821000
    25  C          0.20271000       0.16421000       0.21301000
    26  C          0.79729000       0.66421000       0.28699000
    27  C          0.79729000       0.83579000       0.78699000
    28  C          0.20271000       0.33579000       0.71301000
    29  C          0.24901000       0.20141000       0.30791000
    30  C          0.75099000       0.70141000       0.19209000
    31  C          0.75099000       0.79859000       0.69209000
    32  C          0.24901000       0.29859000       0.80791000
    33  C          0.28621000       0.14091000       0.39311000
    34  C          0.71379000       0.64091000       0.10689000
    35  C          0.71379000       0.85909000       0.60689000
    36  C          0.28621000       0.35909000       0.89311000
    37  C          0.37151000       0.21141000       0.44641000
    38  C          0.62849000       0.71141000       0.05359000
    39  C          0.62849000       0.78859000       0.55359000
    40  C          0.37151000       0.28859000       0.94641000
    41  C          0.45411000       0.21651000       0.37421000
    42  C          0.54589000       0.71651000       0.12579000
    43  C          0.54589000       0.78349000       0.62579000
    44  C          0.45411000       0.28349000       0.87421000
    45  C          0.36541000       0.25251000       0.29431000
    46  C          0.63459000       0.75251000       0.20569000
    47  C          0.63459000       0.74749000       0.70569000
    48  C          0.36541000       0.24749000       0.79431000
    49  C          0.47412000       0.08731000       0.13801000
    50  C          0.52588000       0.58731000       0.36199000
    51  C          0.52588000       0.91269000       0.86199000
    52  C          0.47412000       0.41269000       0.63801000
    53  C          0.45752000      -0.00761000       0.11801000
    54  C          0.54248000       0.49239000       0.38199000
    55  C          0.54248000       0.00761000       0.88199000
    56  C          0.45752000       0.50761000       0.61801000
    57  C          0.35522000       0.94749000       0.13051000
    58  C          0.64478000       0.44749000       0.36949000
    59  C          0.64478000       0.05251000       0.86949000
    60  C          0.35522000       0.55251000       0.63051000
    61  C          0.26622000      -0.00351000       0.16331000
    62  C          0.73378000       0.49649000       0.33669000
    63  C          0.73378000       0.00351000       0.83669000
    64  C          0.26622000       0.50351000       0.66331000
    65  C          0.57631000       0.06001000       0.35831000
    66  C          0.42369000       0.56001000       0.14169000
    67  C          0.42369000       0.93999000       0.64169000
    68  C          0.57631000       0.43999000       0.85831000
    69  C          0.47681000       0.11271000       0.36611000
    70  C          0.52319000       0.61271000       0.13389000
    71  C          0.52319000       0.88729000       0.63389000
    72  C          0.47681000       0.38729000       0.86611000
    73  C          0.37411000       0.06641000       0.37711000
    74  C          0.62589000       0.56641000       0.12289000
    75  C          0.62589000       0.93359000       0.62289000
    76  C          0.37411000       0.43359000       0.87711000
    77  C          0.37461000       0.96899000       0.37881000
    78  C          0.62539000       0.46899000       0.12119000
    79  C          0.62539000       0.03101000       0.62119000
    80  C          0.37461000       0.53101000       0.87881000
    81  C          0.27291000       0.90859000       0.38911000
    82  C          0.72709000       0.40859000       0.11089000
    83  C          0.72709000       0.09141000       0.61089000
    84  C          0.27291000       0.59141000       0.88911000
    85  C          0.29102000       0.82109000       0.42981000
    86  C          0.70898000       0.32109000       0.07019000
    87  C          0.70898000       0.17891000       0.57019000
    88  C          0.29102000       0.67891000       0.92981000
    89  C          0.19752000       0.76389000       0.44021000
    90  C          0.80248000       0.26389000       0.05979000
    91  C          0.80248000       0.23611000       0.55979000
    92  C          0.19752000       0.73611000       0.94021000
    93  C          0.08482000       0.79199000       0.40901000
    94  C          0.91518000       0.29199000       0.09099000
    95  C          0.91518000       0.20801000       0.59099000
    96  C          0.08482000       0.70801000       0.90901000
    97  C          0.06512000       0.87769000       0.36801000
    98  C          0.93488000       0.37769000       0.13199000
    99  C          0.93488000       0.12231000       0.63199000
   100  C          0.06512000       0.62231000       0.86801000
   101  C          0.15881000       0.93619000       0.35821000
   102  C          0.84119000       0.43619000       0.14179000
   103  C          0.84119000       0.06381000       0.64179000
   104  C          0.15881000       0.56381000       0.85821000
   105  C          0.69161000       0.10121000       0.34891000
   106  C          0.30839000       0.60121000       0.15109000
   107  C          0.30839000       0.89879000       0.65109000
   108  C          0.69161000       0.39879000       0.84891000
   109  C          0.79381000       0.05711000       0.38851000
   110  C          0.20619000       0.55711000       0.11149000
   111  C          0.20619000       0.94289000       0.61149000
   112  C          0.79381000       0.44289000       0.88851000
   113  C          0.90132000       0.09711000       0.38391000
   114  C          0.09868000       0.59711000       0.11609000
   115  C          0.09868000       0.90289000       0.61609000
   116  C          0.90132000       0.40289000       0.88391000
   117  C          0.90952000       0.18071000       0.33891000
   118  C          0.09048000       0.68071000       0.16109000
   119  C          0.09048000       0.81929000       0.66109000
   120  C          0.90952000       0.31929000       0.83891000
   121  C          0.80952000       0.22401000       0.29791000
   122  C          0.19048000       0.72401000       0.20209000
   123  C          0.19048000       0.77599000       0.70209000
   124  C          0.80952000       0.27599000       0.79791000
   125  C          0.70071000       0.18471000       0.30301000
   126  C          0.29929000       0.68471000       0.19699000
   127  C          0.29929000       0.81529000       0.69699000
   128  C          0.70071000       0.31529000       0.80301000
   129  H          0.42410000       0.28210000       0.16810000
   130  H          0.57590000       0.78210000       0.33190000
   131  H          0.57590000       0.71790000       0.83190000
   132  H          0.42410000       0.21790000       0.66810000
   133  H          0.21910000       0.23610000       0.09310000
   134  H          0.78090000       0.73610000       0.40690000
   135  H          0.78090000       0.76390000       0.90690000
   136  H          0.21910000       0.26390000       0.59310000
   137  H          0.20710000       0.30910000       0.17810000
   138  H          0.79290000       0.80910000       0.32190000
   139  H          0.79290000       0.69090000       0.82190000
   140  H          0.20710000       0.19090000       0.67810000
   141  H          0.11910000       0.14610000       0.20010000
   142  H          0.88090000       0.64610000       0.29990000
   143  H          0.88090000       0.85390000       0.79990000
   144  H          0.11910000       0.35390000       0.70010000
   145  H          0.18710000       0.25710000       0.32719000
   146  H          0.81290000       0.75710000       0.17281000
   147  H          0.81290000       0.74290000       0.67281000
   148  H          0.18710000       0.24290000       0.82719000
   149  H          0.22210000       0.12010000       0.42110000
   150  H          0.77790000       0.62010000       0.07890000
   151  H          0.77790000       0.87990000       0.57890000
   152  H          0.22210000       0.37990000       0.92110000
   153  H          0.40510000       0.18710000       0.50510000
   154  H          0.59490000       0.68710000      -0.00510000
   155  H          0.59490000       0.81290000       0.49490000
   156  H          0.40510000       0.31290000       0.00510000
   157  H          0.33410000       0.27610000       0.45210000
   158  H          0.66590000       0.77610000       0.04790000
   159  H          0.66590000       0.72390000       0.54790000
   160  H          0.33410000       0.22390000       0.95210000
   161  H          0.52410000       0.25610000       0.39079000
   162  H          0.47590000       0.75610000       0.10921000
   163  H          0.47590000       0.74390000       0.60921000
   164  H          0.52410000       0.24390000       0.89079000
   165  H          0.35710000       0.32410000       0.30610000
   166  H          0.64290000       0.82410000       0.19390000
   167  H          0.64290000       0.67590000       0.69390000
   168  H          0.35710000       0.17590000       0.80610000
   169  H          0.55020000       0.12010000       0.13410000
   170  H          0.44980000       0.62010000       0.36590000
   171  H          0.44980000       0.87990000       0.86590000
   172  H          0.55020000       0.37990000       0.63410000
   173  H          0.52220000       0.95990000       0.09210000
   174  H          0.47780000       0.45990000       0.40790000
   175  H          0.47780000       0.04010000       0.90790000
   176  H          0.52220000       0.54010000       0.59210000
   177  H          0.34720000       0.87890000       0.11410000
   178  H          0.65280000       0.37890000       0.38590000
   179  H          0.65280000       0.12110000       0.88590000
   180  H          0.34720000       0.62110000       0.61410000
   181  H          0.19020000       0.96590000       0.16910000
   182  H          0.80980000       0.46590000       0.33090000
   183  H          0.80980000       0.03410000       0.83090000
   184  H          0.19020000       0.53410000       0.66910000
   185  H          0.37220000       0.79890000       0.45310000
   186  H          0.62780000       0.29890000       0.04690000
   187  H          0.62780000       0.20110000       0.54690000
   188  H          0.37220000       0.70110000       0.95310000
   189  H          0.21420000       0.70290000       0.47010000
   190  H          0.78580000       0.20290000       0.02990000
   191  H          0.78580000       0.29710000       0.52990000
   192  H          0.21420000       0.79710000       0.97010000
   193  H          0.01620000       0.74790000       0.41710000
   194  H          0.98380000       0.24790000       0.08290000
   195  H          0.98380000       0.25210000       0.58290000
   196  H          0.01620000       0.75210000       0.91710000
   197  H          0.98480000       0.89790000       0.34210000
   198  H          0.01520000       0.39790000       0.15790000
   199  H          0.01520000       0.10210000       0.65790000
   200  H          0.98480000       0.60210000       0.84210000
   201  H          0.13910000      -0.00410000       0.33010000
   202  H          0.86090000       0.49590000       0.16990000
   203  H          0.86090000       0.00410000       0.66990000
   204  H          0.13910000       0.50410000       0.83010000
   205  H          0.78510000      -0.00310000       0.42410000
   206  H          0.21490000       0.49690000       0.07590000
   207  H          0.21490000       0.00310000       0.57590000
   208  H          0.78510000       0.50310000       0.92410000
   209  H          0.96910000       0.06510000       0.41510000
   210  H          0.03090000       0.56510000       0.08490000
   211  H          0.03090000       0.93490000       0.58490000
   212  H          0.96910000       0.43490000       0.91510000
   213  H         -0.01080000       0.20910000       0.34010000
   214  H          0.01080000       0.70910000       0.15990000
   215  H          0.01080000       0.79090000       0.65990000
   216  H         -0.01080000       0.29090000       0.84010000
   217  H          0.81420000       0.28510000       0.26910000
   218  H          0.18580000       0.78510000       0.23090000
   219  H          0.18580000       0.71490000       0.73090000
   220  H          0.81420000       0.21490000       0.76910000
   221  H          0.62920000       0.21910000       0.27210000
   222  H          0.37080000       0.71910000       0.22790000
   223  H          0.37080000       0.78090000       0.72790000
   224  H          0.62920000       0.28090000       0.77210000
   225  C          0.96182000       0.01952000       0.03062000
   226  C          0.03818000       0.51952000       0.46938000
   227  C          0.03818000       0.98048000       0.96938000
   228  C          0.96182000       0.48048000       0.53062000
   229  C          0.90073000       0.94658000       0.08212000
   230  C          0.09927000       0.44658000       0.41788000
   231  C          0.09927000       0.05342000       0.91788000
   232  C          0.90073000       0.55342000       0.58212000
   233  C          0.81893000       0.98827000       0.13982000
   234  C          0.18107000       0.48827000       0.36018000
   235  C          0.18107000       0.01173000       0.86018000
   236  C          0.81893000       0.51173000       0.63982000
   237  H          0.90520000       0.06520000       0.98580000
   238  H          0.09480000       0.56520000       0.51420000
   239  H          0.09480000       0.93480000       0.01420000
   240  H          0.90520000       0.43480000       0.48580000
   241  H          0.01120000       0.06420000       0.08220000
   242  H         -0.01120000       0.56420000       0.41780000
   243  H         -0.01120000       0.93580000       0.91780000
   244  H          0.01120000       0.43580000       0.58220000
   245  H          0.84420000       0.90280000       0.03920000
   246  H          0.15580000       0.40280000       0.46080000
   247  H          0.15580000       0.09720000       0.96080000
   248  H          0.84420000       0.59720000       0.53920000
   249  H          0.96020000       0.90480000       0.12420000
   250  H          0.03980000       0.40480000       0.37580000
   251  H          0.03980000       0.09520000       0.87580000
   252  H          0.96020000       0.59520000       0.62420000
   253  H          0.89830000       0.03630000       0.15820000
   254  H          0.10170000       0.53630000       0.34180000
   255  H          0.10170000       0.96370000       0.84180000
   256  H          0.89830000       0.46370000       0.65820000
   257  H          0.78220000       0.95080000       0.16720000
   258  H          0.21780000       0.45080000       0.33280000
   259  H          0.21780000       0.04920000       0.83280000
   260  H          0.78220000       0.54920000       0.66720000
   261  H          0.77150000       0.04940000       0.09340000
   262  H          0.22850000       0.54940000       0.40660000
   263  H          0.22850000       0.95060000       0.90660000
   264  H          0.77150000       0.45060000       0.59340000
   265  H          0.22950000       0.95060000       0.90660000
   266  H          0.77050000       0.45060000       0.59340000
   267  H          0.77050000       0.04940000       0.09340000
   268  H          0.22950000       0.54940000       0.40660000
