data_SIHLON
_symmetry_space_group_name_H-M    'P1'
_symmetry_Int_Tables_number       1
loop_
_symmetry_equiv_pos_site_id
_symmetry_equiv_pos_as_xyz
1 x,y,z
_cell_length_a                   7.30154
_cell_length_b                   7.50606
_cell_length_c                   14.96658
_cell_angle_alpha                92.5395
_cell_angle_beta                 98.5225
_cell_angle_gamma                113.6577
loop_
_atom_site_label
_atom_site_type_symbol
_atom_site_fract_x
_atom_site_fract_y
_atom_site_fract_z
     1  Cl         0.92360900       0.67568900       0.08079400
     2  Cl         0.07639100       0.32431100       0.91920600
     3  N          0.56423000       0.46153000       0.84009150
     4  N          0.43577000       0.53847000       0.15990850
     5  C          0.47964000       0.27334000       0.85176170
     6  C          0.52036000       0.72666000       0.14823830
     7  N          0.52033000       0.19573000       0.92717150
     8  N          0.47967000       0.80427000       0.07282850
     9  N          0.69234000       0.24154000       0.07384160
    10  N          0.30766000       0.75846000       0.92615840
    11  H          0.62450000       0.11850000       0.07720000
    12  H          0.37550000       0.88150000       0.92280000
    13  H          0.76060000       0.31860000       0.12430000
    14  H          0.23940000       0.68140000       0.87570000
    15  C          0.65374000       0.31924000      -0.00179830
    16  C          0.34626000       0.68076000       0.00179830
    17  C          0.74884000       0.52064000       0.98982180
    18  C          0.25116000       0.47936000       0.01017820
    19  C          0.70344000       0.58914000       0.90944180
    20  C          0.29656000       0.41086000       0.09055820
    21  C          0.32344000       0.13284000       0.77562180
    22  C          0.67656000       0.86716000       0.22437820
    23  H          0.27890000       0.20620000       0.73130000
    24  H          0.72110000       0.79380000       0.26870000
    25  H          0.20640000       0.04500000       0.80010000
    26  H          0.79360000       0.95500000       0.19990000
    27  H          0.38280000       0.05560000       0.74580000
    28  H          0.61720000       0.94440000       0.25420000
    29  C          0.80015000       0.79904000       0.89432000
    30  C          0.19985000       0.20096000       0.10568000
    31  H          0.75550000       0.81350000       0.83100000
    32  H          0.24450000       0.18650000       0.16900000
    33  H          0.94830000       0.84460000       0.90680000
    34  H          0.05170000       0.15540000       0.09320000
    35  H          0.76000000       0.87710000       0.93510000
    36  H          0.24000000       0.12290000       0.06490000
    37  Cl         0.95051900       0.74463110       0.61458400
    38  Cl         0.04948100       0.25536890       0.38541600
    39  Cl         0.20778120       0.87604120       0.29833400
    40  Cl         0.79221880       0.12395880       0.70166600
    41  O          0.46924000       0.56814000       0.68251150
    42  O          0.53076000       0.43186000       0.31748850
    43  H          0.50370000       0.54080000       0.73940000
    44  H          0.49630000       0.45920000       0.26060000
    45  O          0.23534000       0.64294000       0.73334140
    46  O          0.76466000       0.35706000       0.26665860
    47  C          0.29064000       0.69684000       0.58101170
    48  C          0.70936000       0.30316000       0.41898830
    49  C          0.12984000       0.74804000       0.54990180
    50  C          0.87016000       0.25196000       0.45009820
    51  C          0.10304000       0.80214000       0.46282180
    52  C          0.89696000       0.19786000       0.53717820
    53  H         -0.00740000       0.83520000       0.44200000
    54  H          0.00740000       0.16480000       0.55800000
    55  C          0.24004000       0.80694000       0.40696170
    56  C          0.75996000       0.19306000       0.59303830
    57  C          0.40224000       0.75954000       0.43580190
    58  C          0.59776000       0.24046000       0.56419810
    59  H          0.49560000       0.76430000       0.39700000
    60  H          0.50440000       0.23570000       0.60300000
    61  C          0.42524000       0.70514000       0.52212190
    62  C          0.57476000       0.29486000       0.47787810
    63  H          0.53610000       0.67210000       0.54230000
    64  H          0.46390000       0.32790000       0.45770000
    65  C          0.32714000       0.63354000       0.67360180
    66  C          0.67286000       0.36646000       0.32639820
