data_SIHYOZ
_symmetry_space_group_name_H-M    'P1'
_symmetry_Int_Tables_number       1
loop_
_symmetry_equiv_pos_site_id
_symmetry_equiv_pos_as_xyz
1 x,y,z
_cell_length_a                   29.3823
_cell_length_b                   7.40197
_cell_length_c                   6.89398
_cell_angle_alpha                90.0
_cell_angle_beta                 90.1135
_cell_angle_gamma                90.0
loop_
_atom_site_label
_atom_site_type_symbol
_atom_site_fract_x
_atom_site_fract_y
_atom_site_fract_z
     1  I          0.41115480      -0.00000000       0.16306300
     2  I          0.58884520      -0.00000000       0.83693700
     3  I          0.91115480       0.50000000       0.16306300
     4  I          0.08884520       0.50000000       0.83693700
     5  C          0.46447120      -0.00000000       0.36845000
     6  C          0.53552880      -0.00000000       0.63155000
     7  C          0.96447120       0.50000000       0.36845000
     8  C          0.03552880       0.50000000       0.63155000
     9  C          0.50946140      -0.00000000       0.30475000
    10  C          0.49053860      -0.00000000       0.69525000
    11  C          0.00946140       0.50000000       0.30475000
    12  C          0.99053860       0.50000000       0.69525000
    13  H          0.51731200      -0.00000000       0.17840000
    14  H          0.48268800      -0.00000000       0.82160000
    15  H          0.01731200       0.50000000       0.17840000
    16  H          0.98268800       0.50000000       0.82160000
    17  C          0.45508130      -0.00000000       0.56365000
    18  C          0.54491870       0.00000000       0.43635000
    19  C          0.95508130       0.50000000       0.56365000
    20  C          0.04491870       0.50000000       0.43635000
    21  H          0.42561000      -0.00000000       0.60160000
    22  H          0.57439000       0.00000000       0.39840000
    23  H          0.92561000       0.50000000       0.60160000
    24  H          0.07439000       0.50000000       0.39840000
    25  I          0.32218390      -0.00000000       0.81990600
    26  I          0.67781610      -0.00000000       0.18009400
    27  I          0.82218390       0.50000000       0.81990600
    28  I          0.17781610       0.50000000       0.18009400
    29  N          0.17419100      -0.00000000       0.69664000
    30  N          0.82580900       0.00000000       0.30336000
    31  N          0.67419100       0.50000000       0.69664000
    32  N          0.32580900       0.50000000       0.30336000
    33  C          0.12435120      -0.00000000       0.63655000
    34  C          0.87564880       0.00000000       0.36345000
    35  C          0.62435120       0.50000000       0.63655000
    36  C          0.37564880       0.50000000       0.36345000
    37  H          0.11228000       0.10771200       0.70130000
    38  H          0.88772000       0.10771200       0.29870000
    39  H          0.61228000       0.60771200       0.70130000
    40  H          0.38772000       0.60771200       0.29870000
    41  H          0.88772000       0.89228800       0.29870000
    42  H          0.11228000       0.89228800       0.70130000
    43  H          0.38772000       0.39228800       0.29870000
    44  H          0.61228000       0.39228800       0.70130000
    45  C          0.11555140      -0.00000000       0.41955000
    46  C          0.88444860      -0.00000000       0.58045000
    47  C          0.61555140       0.50000000       0.41955000
    48  C          0.38444860       0.50000000       0.58045000
    49  H          0.12928000       0.10801200       0.36240000
    50  H          0.87072000       0.10801200       0.63760000
    51  H          0.62928000       0.60801200       0.36240000
    52  H          0.37072000       0.60801200       0.63760000
    53  H          0.87072000       0.89198800       0.63760000
    54  H          0.12928000       0.89198800       0.36240000
    55  H          0.37072000       0.39198800       0.63760000
    56  H          0.62928000       0.39198800       0.36240000
    57  C          0.06444120      -0.00000000       0.37805000
    58  C          0.93555880      -0.00000000       0.62195000
    59  C          0.56444120       0.50000000       0.37805000
    60  C          0.43555880       0.50000000       0.62195000
    61  H          0.05068000       0.10841200       0.43340000
    62  H          0.94932000       0.10841200       0.56660000
    63  H          0.55068000       0.60841200       0.43340000
    64  H          0.44932000       0.60841200       0.56660000
    65  H          0.94932000       0.89158800       0.56660000
    66  H          0.05068000       0.89158800       0.43340000
    67  H          0.44932000       0.39158800       0.56660000
    68  H          0.55068000       0.39158800       0.43340000
    69  C          0.05484140      -0.00000000       0.16055000
    70  C          0.94515860      -0.00000000       0.83945000
    71  C          0.55484140       0.50000000       0.16055000
    72  C          0.44515860       0.50000000       0.83945000
    73  H          0.06927000       0.10611200       0.09830000
    74  H          0.93073000       0.10611200       0.90170000
    75  H          0.56927000       0.60611200       0.09830000
    76  H          0.43073000       0.60611200       0.90170000
    77  H          0.93073000       0.89388800       0.90170000
    78  H          0.06927000       0.89388800       0.09830000
    79  H          0.43073000       0.39388800       0.90170000
    80  H          0.56927000       0.39388800       0.09830000
    81  C          0.00440130      -0.00000000       0.10845000
    82  C         -0.00440130      -0.00000000       0.89155000
    83  C          0.50440130       0.50000000       0.10845000
    84  C          0.49559870       0.50000000       0.89155000
    85  H          0.99102000       0.10801200       0.16830000
    86  H          0.00898000       0.10801200       0.83170000
    87  H          0.49102000       0.60801200       0.16830000
    88  H          0.50898000       0.60801200       0.83170000
    89  H          0.00898000       0.89198800       0.83170000
    90  H          0.99102000       0.89198800       0.16830000
    91  H          0.50898000       0.39198800       0.83170000
    92  H          0.49102000       0.39198800       0.16830000
    93  C          0.19740110       0.16615000       0.62695000
    94  C          0.80259890       0.16615000       0.37305000
    95  C          0.69740110       0.66615000       0.62695000
    96  C          0.30259890       0.66615000       0.37305000
    97  C          0.80259890       0.83385000       0.37305000
    98  C          0.19740110       0.83385000       0.62695000
    99  C          0.30259890       0.33385000       0.37305000
   100  C          0.69740110       0.33385000       0.62695000
   101  H          0.18141000       0.27530000       0.66550000
   102  H          0.81859000       0.27530000       0.33450000
   103  H          0.68141000       0.77530000       0.66550000
   104  H          0.31859000       0.77530000       0.33450000
   105  H          0.81859000       0.72470000       0.33450000
   106  H          0.18141000       0.72470000       0.66550000
   107  H          0.31859000       0.22470000       0.33450000
   108  H          0.68141000       0.22470000       0.66550000
   109  H          0.19851000       0.15540000       0.48581600
   110  H          0.80149000       0.15540000       0.51418400
   111  H          0.69851000       0.65540000       0.48581600
   112  H          0.30149000       0.65540000       0.51418400
   113  H          0.80149000       0.84460000       0.51418400
   114  H          0.19851000       0.84460000       0.48581600
   115  H          0.30149000       0.34460000       0.51418400
   116  H          0.69851000       0.34460000       0.48581600
   117  H          0.22865000       0.16540000       0.67840000
   118  H          0.77135000       0.16540000       0.32160000
   119  H          0.72865000       0.66540000       0.67840000
   120  H          0.27135000       0.66540000       0.32160000
   121  H          0.77135000       0.83460000       0.32160000
   122  H          0.22865000       0.83460000       0.67840000
   123  H          0.27135000       0.33460000       0.32160000
   124  H          0.72865000       0.33460000       0.67840000
   125  C          0.17684160      -0.00000000       0.91406000
   126  C          0.82315840       0.00000000       0.08594000
   127  C          0.67684160       0.50000000       0.91406000
   128  C          0.32315840       0.50000000       0.08594000
   129  H          0.16067000       0.10761200       0.95840000
   130  H          0.83933000       0.10761200       0.04160000
   131  H          0.66067000       0.60761200       0.95840000
   132  H          0.33933000       0.60761200       0.04160000
   133  H          0.83933000       0.89238800       0.04160000
   134  H          0.16067000       0.89238800       0.95840000
   135  H          0.33933000       0.39238800       0.04160000
   136  H          0.66067000       0.39238800       0.95840000
   137  H          0.20836000      -0.00000000       0.96170000
   138  H          0.79164000       0.00000000       0.03830000
   139  H          0.70836000       0.50000000       0.96170000
   140  H          0.29164000       0.50000000       0.03830000
