data_SIKCIY
_symmetry_space_group_name_H-M    'P1'
_symmetry_Int_Tables_number       1
loop_
_symmetry_equiv_pos_site_id
_symmetry_equiv_pos_as_xyz
1 x,y,z
_cell_length_a                   10.5193
_cell_length_b                   11.1573
_cell_length_c                   11.7983
_cell_angle_alpha                60.962
_cell_angle_beta                 81.302
_cell_angle_gamma                79.982
loop_
_atom_site_label
_atom_site_type_symbol
_atom_site_fract_x
_atom_site_fract_y
_atom_site_fract_z
     1  F          0.11734000       0.20287000       0.98497000
     2  F          0.88266000       0.79713000       0.01503000
     3  B          0.10271000       0.10440000       0.12084000
     4  B          0.89729000       0.89560000       0.87916000
     5  C          0.17662000       0.95526000       0.15096000
     6  C          0.82338000       0.04474000       0.84904000
     7  H          0.14625000       0.92430000       0.09792000
     8  H          0.85375000       0.07570000       0.90208000
     9  C          0.15228000       0.85003000       0.29357000
    10  C          0.84772000       0.14997000       0.70643000
    11  H          0.21222000       0.76914000       0.31021000
    12  H          0.78778000       0.23086000       0.68979000
    13  H          0.06668000       0.82371000       0.30962000
    14  H          0.93332000       0.17629000       0.69038000
    15  C          0.16898000       0.89547000       0.39380000
    16  C          0.83102000       0.10453000       0.60620000
    17  H          0.25973000       0.88511000       0.40353000
    18  H          0.74027000       0.11489000       0.59647000
    19  H          0.12886000       0.83542000       0.47636000
    20  H          0.87114000       0.16458000       0.52364000
    21  C          0.11343000       0.04499000       0.35689000
    22  C          0.88657000       0.95501000       0.64311000
    23  H          0.14862000       0.07169000       0.41068000
    24  H          0.85138000       0.92831000       0.58932000
    25  H          0.02129000       0.04945000       0.37604000
    26  H          0.97871000       0.95055000       0.62396000
    27  C          0.14577000       0.15104000       0.21500000
    28  C          0.85423000       0.84896000       0.78500000
    29  H          0.09795000       0.23871000       0.19772000
    30  H          0.90205000       0.76129000       0.80228000
    31  C          0.29067000       0.16912000       0.17676000
    32  C          0.70933000       0.83088000       0.82324000
    33  H          0.32136000       0.18492000       0.24043000
    34  H          0.67864000       0.81508000       0.75957000
    35  H          0.30114000       0.24878000       0.09409000
    36  H          0.69886000       0.75122000       0.90591000
    37  C          0.37672000       0.04353000       0.17542000
    38  C          0.62328000       0.95647000       0.82458000
    39  H          0.39234000       0.97548000       0.26280000
    40  H          0.60766000       0.02452000       0.73720000
    41  H          0.45906000       0.07123000       0.13087000
    42  H          0.54094000       0.92877000       0.86913000
    43  C          0.32093000       0.97756000       0.10931000
    44  C          0.67907000       0.02244000       0.89069000
    45  H          0.33319000       0.03223000       0.01691000
    46  H          0.66681000       0.96777000       0.98309000
    47  H          0.37052000       0.88956000       0.13186000
    48  H          0.62948000       0.11044000       0.86814000
    49  F          0.94432000       0.10085000       0.14031000
    50  F          0.05568000       0.89915000       0.85969000
    51  B          0.84963000       0.21819000       0.11209000
    52  B          0.15037000       0.78181000       0.88791000
    53  C          0.88239000       0.36724000       0.05597000
    54  C          0.11761000       0.63276000       0.94403000
    55  H          0.97476000       0.36592000       0.04206000
    56  H          0.02524000       0.63408000       0.95794000
    57  C          0.82371000       0.44610000       0.92390000
    58  C          0.17629000       0.55390000       0.07610000
    59  H          0.87078000       0.41349000       0.86578000
    60  H          0.12922000       0.58651000       0.13422000
    61  H          0.83737000       0.54051000       0.88938000
    62  H          0.16263000       0.45949000       0.11062000
    63  C          0.68004000       0.44024000       0.92772000
    64  C          0.31996000       0.55976000       0.07228000
    65  H          0.65912000       0.47556000       0.83998000
    66  H          0.34088000       0.52444000       0.16002000
    67  H          0.63039000       0.49823000       0.96173000
    68  H          0.36961000       0.50177000       0.03827000
    69  C          0.63978000       0.29406000       0.00826000
    70  C          0.36022000       0.70594000      -0.00826000
    71  H          0.66080000       0.24792000       0.95587000
    72  H          0.33920000       0.75208000       0.04413000
    73  H          0.54756000       0.30054000       0.02684000
    74  H          0.45244000       0.69946000       0.97316000
    75  C          0.70375000       0.20345000       0.13730000
    76  C          0.29625000       0.79655000       0.86270000
    77  H          0.69142000       0.10915000       0.16888000
    78  H          0.30858000       0.89085000       0.83112000
    79  C          0.65414000       0.24939000       0.24262000
    80  C          0.34586000       0.75061000       0.75738000
    81  H          0.69825000       0.18485000       0.31822000
    82  H          0.30175000       0.81515000       0.68178000
    83  H          0.56303000       0.24373000       0.26501000
    84  H          0.43697000       0.75627000       0.73499000
    85  C          0.68560000       0.39194000       0.20977000
    86  C          0.31440000       0.60806000       0.79023000
    87  H          0.66473000       0.40679000       0.28451000
    88  H          0.33527000       0.59321000       0.71549000
    89  H          0.63005000       0.45761000       0.14414000
    90  H          0.36995000       0.54239000       0.85586000
    91  C          0.82519000       0.41865000       0.15547000
    92  C          0.17481000       0.58135000       0.84453000
    93  H          0.83202000       0.51513000       0.11782000
    94  H          0.16798000       0.48487000       0.88218000
    95  H          0.87877000       0.37131000       0.22700000
    96  H          0.12123000       0.62869000       0.77300000
    97  F          0.14813000       0.12260000       0.80824000
    98  F          0.85187000       0.87740000       0.19176000
    99  B          0.21500000       0.21045000       0.69322000
   100  B          0.78500000       0.78955000       0.30678000
   101  C          0.27364000       0.33614000       0.67547000
   102  C          0.72636000       0.66386000       0.32453000
   103  H          0.26026000       0.34001000       0.75605000
   104  H          0.73974000       0.65999000       0.24395000
   105  C          0.41878000       0.31786000       0.63595000
   106  C          0.58122000       0.68214000       0.36405000
   107  H          0.46022000       0.24615000       0.71041000
   108  H          0.53978000       0.75385000       0.28959000
   109  H          0.45347000       0.40165000       0.61161000
   110  H          0.54653000       0.59835000       0.38839000
   111  C          0.45297000       0.28230000       0.52435000
   112  C          0.54703000       0.71770000       0.47565000
   113  H          0.54411000       0.25475000       0.51629000
   114  H          0.45589000       0.74525000       0.48371000
   115  H          0.43208000       0.36400000       0.44555000
   116  H          0.56792000       0.63600000       0.55445000
   117  C          0.37742000       0.17153000       0.53429000
   118  C          0.62258000       0.82847000       0.46571000
   119  H          0.41361000       0.08492000       0.59994000
   120  H          0.58639000       0.91508000       0.40006000
   121  H          0.39113000       0.16771000       0.45368000
   122  H          0.60887000       0.83229000       0.54632000
   123  C          0.23168000       0.19035000       0.57105000
   124  C          0.76832000       0.80965000       0.42895000
   125  H          0.19319000       0.11102000       0.58786000
   126  H          0.80681000       0.88898000       0.41214000
   127  C          0.15729000       0.32081000       0.46506000
   128  C          0.84271000       0.67919000       0.53494000
   129  H          0.06638000       0.31488000       0.48891000
   130  H          0.93362000       0.68512000       0.51109000
   131  H          0.17478000       0.31748000       0.38426000
   132  H          0.82522000       0.68252000       0.61574000
   133  C          0.18766000       0.45945000       0.44605000
   134  C          0.81234000       0.54055000       0.55395000
   135  H          0.11683000       0.52530000       0.40272000
   136  H          0.88317000       0.47470000       0.59728000
   137  H          0.26489000       0.48433000       0.38914000
   138  H          0.73511000       0.51567000       0.61086000
   139  C          0.19685000       0.46425000       0.57200000
   140  C          0.80315000       0.53575000       0.42800000
   141  H          0.24248000       0.54079000       0.54992000
   142  H          0.75752000       0.45921000       0.45008000
   143  H          0.11230000       0.48042000       0.60957000
   144  H          0.88770000       0.51958000       0.39043000
