data_SILSEO
_symmetry_space_group_name_H-M    'P1'
_symmetry_Int_Tables_number       1
loop_
_symmetry_equiv_pos_site_id
_symmetry_equiv_pos_as_xyz
1 x,y,z
_cell_length_a                   8.8982
_cell_length_b                   8.9642
_cell_length_c                   9.2263
_cell_angle_alpha                78.962
_cell_angle_beta                 66.163
_cell_angle_gamma                79.152
loop_
_atom_site_label
_atom_site_type_symbol
_atom_site_fract_x
_atom_site_fract_y
_atom_site_fract_z
     1  P          0.37726500       0.04952400       0.57414500
     2  P          0.62273500       0.95047600       0.42585500
     3  O          0.26504140       0.92755890       0.64489140
     4  O          0.73495860       0.07244110       0.35510860
     5  O          0.31452140       0.17828120       0.46692140
     6  O          0.68547860       0.82171880       0.53307860
     7  H          0.37020000       0.25230000       0.42440000
     8  H          0.62980000       0.74770000       0.57560000
     9  O          0.40490150       0.11672120       0.70317140
    10  O          0.59509850       0.88327880       0.29682860
    11  H          0.38870000       0.21230000       0.70150000
    12  H          0.61130000       0.78770000       0.29850000
    13  P          0.42479500       0.53118400       0.61964500
    14  P          0.57520500       0.46881600       0.38035500
    15  O          0.35032150       0.39277120       0.72588140
    16  O          0.64967850       0.60722880       0.27411860
    17  O          0.53064140       0.60066120       0.67678140
    18  O          0.46935860       0.39933880       0.32321860
    19  O          0.28238140       0.65333120       0.59613150
    20  O          0.71761860       0.34666880       0.40386850
    21  H          0.28620000       0.74300000       0.60780000
    22  H          0.71380000       0.25700000       0.39220000
    23  N          0.17995160       0.73006140       0.13846160
    24  N          0.82004840       0.26993860       0.86153840
    25  C          0.22872000       0.55842160       0.13252000
    26  C          0.77128000       0.44157840       0.86748000
    27  H          0.23700000       0.53550000       0.02860000
    28  H          0.76300000       0.46450000       0.97140000
    29  H          0.34010000       0.53090000       0.13670000
    30  H          0.65990000       0.46910000       0.86330000
    31  C          0.11202000       0.45767190       0.26442000
    32  C          0.88798000       0.54232810       0.73558000
    33  H          0.14970000       0.35020000       0.24710000
    34  H          0.85030000       0.64980000       0.75290000
    35  H          0.00030000       0.48540000       0.26380000
    36  H         -0.00030000       0.51460000       0.73620000
    37  H          0.11030000       0.47210000       0.36770000
    38  H          0.88970000       0.52790000       0.63230000
    39  C          0.30202000       0.81305170      -0.00852190
    40  C          0.69798000       0.18694830       0.00852190
    41  H          0.25920000       0.92330000      -0.01600000
    42  H          0.74080000       0.07670000       0.01600000
    43  H          0.30730000       0.77420000       0.89580000
    44  H          0.69270000       0.22580000       0.10420000
    45  C          0.47692000       0.79676190      -0.01222000
    46  C          0.52308000       0.20323810       0.01222000
    47  H          0.54990000       0.84300000       0.88370000
    48  H          0.45010000       0.15700000       0.11630000
    49  H          0.51730000       0.68800000       0.00500000
    50  H          0.48270000       0.31200000      -0.00500000
    51  H          0.47610000       0.84890000       0.07230000
    52  H          0.52390000       0.15110000       0.92770000
    53  C          0.00675190       0.77839170       0.13882000
    54  C          0.99324810       0.22160830       0.86118000
    55  H          0.92740000       0.72640000       0.23690000
    56  H          0.07260000       0.27360000       0.76310000
    57  H          0.97910000       0.89000000       0.14400000
    58  H          0.02090000       0.11000000       0.85600000
    59  C          0.98268000       0.74365180      -0.00452000
    60  C          0.01732000       0.25634820       0.00452000
    61  H          0.05510000       0.80010000       0.89790000
    62  H          0.94490000       0.19990000       0.10210000
    63  H          0.86700000       0.77490000       0.00770000
    64  H          0.13300000       0.22510000      -0.00770000
    65  H          0.01050000       0.63350000      -0.01180000
    66  H          0.98950000       0.36650000       0.01180000
    67  C          0.18282000       0.76766180       0.29122000
    68  C          0.81718000       0.23233820       0.70878000
    69  H          0.09650000       0.71650000       0.38360000
    70  H          0.90350000       0.28350000       0.61640000
    71  H          0.29130000       0.72420000       0.29720000
    72  H          0.70870000       0.27580000       0.70280000
    73  C          0.15452000       0.93739190       0.30602000
    74  C          0.84548000       0.06260810       0.69398000
    75  H          0.23770000      -0.01010000       0.21400000
    76  H          0.76230000       0.01010000       0.78600000
    77  H          0.16400000       0.95160000       0.40460000
    78  H          0.83600000       0.04840000       0.59540000
    79  H          0.04370000       0.98020000       0.30910000
    80  H          0.95630000       0.01980000       0.69090000
