data_SINJEH
_symmetry_space_group_name_H-M    'P1'
_symmetry_Int_Tables_number       1
loop_
_symmetry_equiv_pos_site_id
_symmetry_equiv_pos_as_xyz
1 x,y,z
_cell_length_a                   7.350901
_cell_length_b                   11.92632
_cell_length_c                   13.97282
_cell_angle_alpha                90.0
_cell_angle_beta                 95.39001
_cell_angle_gamma                90.0
loop_
_atom_site_label
_atom_site_type_symbol
_atom_site_fract_x
_atom_site_fract_y
_atom_site_fract_z
     1  I          0.16469500       0.23476400       0.40187300
     2  I          0.33530500       0.73476400       0.09812700
     3  I          0.83530500       0.76523600       0.59812700
     4  I          0.66469500       0.26523600       0.90187300
     5  Br         0.59991800       0.36047500       0.45591400
     6  Br         0.90008200       0.86047500       0.04408600
     7  Br         0.40008200       0.63952500       0.54408600
     8  Br         0.09991800       0.13952500       0.95591400
     9  Br         0.82104900       0.38718600       0.68706400
    10  Br         0.67895100       0.88718600       0.81293600
    11  Br         0.17895100       0.61281400       0.31293600
    12  Br         0.32104900       0.11281400       0.18706400
    13  O          0.18787000       0.49105000       0.67043000
    14  O          0.31213000      -0.00895000       0.82957000
    15  O          0.81213000       0.50895000       0.32957000
    16  O          0.68787000       0.00895000       0.17043000
    17  C          0.09858000       0.50095000       0.59434000
    18  C          0.40142000       0.00095000       0.90566000
    19  C          0.90142000       0.49905000       0.40566000
    20  C          0.59858000      -0.00095000       0.09434000
    21  C          0.91527000       0.44845000       0.57624000
    22  C          0.58473000       0.94845000       0.92376000
    23  C          0.08473000       0.55155000       0.42376000
    24  C          0.41527000       0.05155000       0.07624000
    25  C          0.82998000       0.43935000       0.48784000
    26  C          0.67002000       0.93935000       0.01216000
    27  C          0.17002000       0.56065000       0.51216000
    28  C          0.32998000       0.06065000       0.98784000
    29  N          0.36027000       0.58655000       0.85074000
    30  N          0.13973000       0.08655000       0.64926000
    31  N          0.63973000       0.41345000       0.14926000
    32  N          0.86027000       0.91345000       0.35074000
    33  N         -0.00332000       0.58628000       0.87765000
    34  N          0.50332000       0.08628000       0.62235000
    35  N          0.00332000       0.41372000       0.12235000
    36  N          0.49668000       0.91372000       0.37765000
    37  C          0.26131000       0.67797000       0.83065000
    38  C          0.23869000       0.17797000       0.66935000
    39  C          0.73869000       0.32203000       0.16935000
    40  C          0.76131000       0.82203000       0.33065000
    41  H          0.31360000       0.74210000       0.80720000
    42  H          0.18640000       0.24210000       0.69280000
    43  H          0.68640000       0.25790000       0.19280000
    44  H          0.81360000       0.75790000       0.30720000
    45  C          0.07691000       0.67478000       0.84555000
    46  C          0.42309000       0.17478000       0.65445000
    47  C          0.92309000       0.32522000       0.15445000
    48  C          0.57691000       0.82522000       0.34555000
    49  H          0.00700000       0.73880000       0.83190000
    50  H          0.49300000       0.23880000       0.66810000
    51  H         -0.00700000       0.26120000       0.16810000
    52  H          0.50700000       0.76120000       0.33190000
    53  C          0.28369000       0.49476000       0.88365000
    54  C          0.21631000      -0.00524000       0.61635000
    55  C          0.71631000       0.50524000       0.11635000
    56  C          0.78369000       0.00524000       0.38365000
    57  H          0.35380000       0.43110000       0.89840000
    58  H          0.14620000       0.93110000       0.60160000
    59  H          0.64620000       0.56890000       0.10160000
    60  H          0.85380000       0.06890000       0.39840000
    61  C          0.10101100       0.49468000       0.89565000
    62  C          0.39898900      -0.00532000       0.60435000
    63  C          0.89898900       0.50532000       0.10435000
    64  C          0.60101100       0.00532000       0.39565000
    65  H          0.04770000       0.42950000       0.91680000
    66  H          0.45230000       0.92950000       0.58320000
    67  H          0.95230000       0.57050000       0.08320000
    68  H          0.54770000       0.07050000       0.41680000
    69  C          0.55781100       0.58738000       0.83839000
    70  C          0.94218900       0.08738000       0.66161000
    71  C          0.44218900       0.41262000       0.16161000
    72  C          0.05781100       0.91262000       0.33839000
    73  H          0.60930000       0.51530000       0.85570000
    74  H          0.89070000       0.01530000       0.64430000
    75  H          0.39070000       0.48470000       0.14430000
    76  H          0.10930000       0.98470000       0.35570000
    77  H          0.61730000       0.64400000       0.87880000
    78  H          0.88270000       0.14400000       0.62120000
    79  H          0.38270000       0.35600000       0.12120000
    80  H          0.11730000       0.85600000       0.37880000
    81  H          0.57510000       0.60300000       0.77240000
    82  H          0.92490000       0.10300000       0.72760000
    83  H          0.42490000       0.39700000       0.22760000
    84  H          0.07510000       0.89700000       0.27240000
