data_SINKIM01
_symmetry_space_group_name_H-M    'P1'
_symmetry_Int_Tables_number       1
loop_
_symmetry_equiv_pos_site_id
_symmetry_equiv_pos_as_xyz
1 x,y,z
_cell_length_a                   7.89114
_cell_length_b                   8.34003
_cell_length_c                   11.63705
_cell_angle_alpha                97.3643
_cell_angle_beta                 100.6464
_cell_angle_gamma                93.3593
loop_
_atom_site_label
_atom_site_type_symbol
_atom_site_fract_x
_atom_site_fract_y
_atom_site_fract_z
     1  I          0.28020500       0.20568400       0.00621300
     2  I          0.71979500       0.79431600      -0.00621300
     3  Br         0.10517800       0.30997700       0.25860400
     4  Br         0.89482200       0.69002300       0.74139600
     5  Br         0.84980300       0.62263700       0.24375400
     6  Br         0.15019700       0.37736300       0.75624600
     7  O          0.18999000       0.24866000       0.51164000
     8  O          0.81001000       0.75134000       0.48836000
     9  C          0.10657000       0.36256000       0.50704000
    10  C          0.89343000       0.63744000       0.49296000
    11  C          0.03776000       0.41976000       0.39224000
    12  C          0.96224000       0.58024000       0.60776000
    13  C          0.93854000       0.54496000       0.38584000
    14  C          0.06146000       0.45504000       0.61416000
    15  O          0.33471000       0.91476000       0.57774000
    16  O          0.66529000       0.08524000       0.42226000
    17  O          0.40009000       0.66067000       0.56855000
    18  O          0.59991000       0.33933000       0.43145000
    19  N          0.27624000       0.74905000       0.14884000
    20  N          0.72376000       0.25095000       0.85116000
    21  C          0.21802000       0.87327000       0.21176000
    22  C          0.78198000       0.12673000       0.78824000
    23  H          0.15450000       0.94740000       0.17280000
    24  H          0.84550000       0.05260000       0.82720000
    25  C          0.25152000       0.89176000       0.33305000
    26  C          0.74848000       0.10824000       0.66695000
    27  H          0.21480000       0.98020000       0.37610000
    28  H          0.78520000       0.01980000       0.62390000
    29  C          0.34143000       0.77676000       0.39105000
    30  C          0.65857000       0.22324000       0.60895000
    31  C          0.40233000       0.65056000       0.32385000
    32  C          0.59767000       0.34944000       0.67615000
    33  H          0.46440000       0.57320000       0.36030000
    34  H          0.53560000       0.42680000       0.63970000
    35  C          0.36982000       0.64147000       0.20345000
    36  C          0.63018000       0.35853000       0.79655000
    37  H          0.41340000       0.55910000       0.15840000
    38  H          0.58660000       0.44090000       0.84160000
    39  C          0.23121000       0.72739000       0.01885000
    40  C          0.76879000       0.27261000       0.98115000
    41  H          0.16470000       0.81380000      -0.00610000
    42  H          0.83530000       0.18620000       0.00610000
    43  H          0.16450000       0.62530000      -0.00930000
    44  H          0.83550000       0.37470000       0.00930000
    45  H          0.33530000       0.72880000       0.98720000
    46  H          0.66470000       0.27120000       0.01280000
    47  C          0.36473000       0.77687000       0.52175000
    48  C          0.63527000       0.22313000       0.47825000
    49  C          0.34388600       0.92571100       0.70447000
    50  C          0.65611400       0.07428900       0.29553000
    51  H          0.31990000       0.03260000       0.73500000
    52  H          0.68010000       0.96740000       0.26500000
    53  H          0.45780000       0.90450000       0.74180000
    54  H          0.54220000       0.09550000       0.25820000
    55  H          0.26020000       0.84720000       0.72000000
    56  H          0.73980000       0.15280000       0.28000000
