data_SINLAF
_symmetry_space_group_name_H-M    'P1'
_symmetry_Int_Tables_number       1
loop_
_symmetry_equiv_pos_site_id
_symmetry_equiv_pos_as_xyz
1 x,y,z
_cell_length_a                   6.9255
_cell_length_b                   14.4715
_cell_length_c                   13.6955
_cell_angle_alpha                90.0
_cell_angle_beta                 97.5785
_cell_angle_gamma                90.0
loop_
_atom_site_label
_atom_site_type_symbol
_atom_site_fract_x
_atom_site_fract_y
_atom_site_fract_z
     1  I          0.80106600       0.35174200       0.80721200
     2  I          0.69893400       0.85174200       0.69278800
     3  I          0.19893400       0.64825800       0.19278800
     4  I          0.30106600       0.14825800       0.30721200
     5  Cl         0.37301180       0.41132900       0.92998900
     6  Cl         0.12698820       0.91132900       0.57001100
     7  Cl         0.62698820       0.58867100       0.07001100
     8  Cl         0.87301180       0.08867100       0.42998900
     9  Cl         0.20902000       0.33839900       0.12524100
    10  Cl         0.29098000       0.83839900       0.37475900
    11  Cl         0.79098000       0.66160100       0.87475900
    12  Cl         0.70902000       0.16160100       0.62524100
    13  O          0.15406000       0.57133000       0.85003000
    14  O          0.34594000       0.07133000       0.64997000
    15  O          0.84594000       0.42867000       0.14997000
    16  O          0.65406000       0.92867000       0.35003000
    17  C          0.08108000       0.53664000       0.91574000
    18  C          0.41892000       0.03664000       0.58426000
    19  C          0.91892000       0.46336000       0.08426000
    20  C          0.58108000       0.96336000       0.41574000
    21  C          0.17217000       0.45684000       0.97304000
    22  C          0.32783000       0.95684000       0.52696000
    23  C          0.82783000       0.54316000       0.02696000
    24  C          0.67217000       0.04316000       0.47304000
    25  C          0.10478000       0.42703000       0.05404000
    26  C          0.39522000       0.92703000       0.44596000
    27  C          0.89522000       0.57297000       0.94596000
    28  C          0.60478000       0.07297000       0.55404000
    29  N          0.22767000       0.36293000       0.56934000
    30  N          0.27233000       0.86293000       0.93066000
    31  N          0.77233000       0.63707000       0.43066000
    32  N          0.72767000       0.13707000       0.06934000
    33  N          0.15738000       0.32064000       0.48744000
    34  N          0.34262000       0.82064000       0.01256000
    35  N          0.84262000       0.67936000       0.51256000
    36  N          0.65738000       0.17936000       0.98744000
    37  C          0.27268000       0.45724000       0.57235000
    38  C          0.22732000       0.95724000       0.92765000
    39  C          0.72732000       0.54276000       0.42765000
    40  C          0.77268000       0.04276000       0.07235000
    41  C          0.34868000       0.50094000       0.66164000
    42  C          0.15132000       0.00094000       0.83836000
    43  C          0.65132000       0.49906000       0.33836000
    44  C          0.84868000      -0.00094000       0.16164000
    45  H          0.37060000       0.46780000       0.72020000
    46  H          0.12940000       0.96780000       0.77980000
    47  H          0.62940000       0.53220000       0.27980000
    48  H          0.87060000       0.03220000       0.22020000
    49  C          0.38928000       0.59504000       0.65884000
    50  C          0.11072000       0.09504000       0.84116000
    51  C          0.61072000       0.40496000       0.34116000
    52  C          0.88928000       0.90496000       0.15884000
    53  H          0.43760000       0.62560000       0.71650000
    54  H          0.06240000       0.12560000       0.78350000
    55  H          0.56240000       0.37440000       0.28350000
    56  H          0.93760000       0.87440000       0.21650000
    57  C          0.35849000       0.64394000       0.57026000
    58  C          0.14151000       0.14394000       0.92974000
    59  C          0.64151000       0.35606000       0.42974000
    60  C          0.85849000       0.85606000       0.07026000
    61  H          0.38690000       0.70670000       0.56960000
    62  H          0.11310000       0.20670000       0.93040000
    63  H          0.61310000       0.29330000       0.43040000
    64  H          0.88690000       0.79330000       0.06960000
    65  C          0.28778000       0.60134000       0.48574000
    66  C          0.21222000       0.10134000       0.01426000
    67  C          0.71222000       0.39866000       0.51426000
    68  C          0.78778000       0.89866000       0.98574000
    69  H          0.26890000       0.63500000       0.42740000
    70  H          0.23110000       0.13500000       0.07260000
    71  H          0.73110000       0.36500000       0.57260000
    72  H          0.76890000       0.86500000       0.92740000
    73  C          0.24248000       0.50774000       0.48394000
    74  C          0.25752000       0.00774000       0.01606000
    75  C          0.75752000       0.49226000       0.51606000
    76  C          0.74248000      -0.00774000       0.98394000
    77  C          0.16419000       0.46135000       0.39505000
    78  C          0.33581000       0.96135000       0.10495000
    79  C          0.83581000       0.53865000       0.60495000
    80  C          0.66419000       0.03865000       0.89505000
    81  H          0.14170000       0.49430000       0.33630000
    82  H          0.35830000      -0.00570000       0.16370000
    83  H          0.85830000       0.50570000       0.66370000
    84  H          0.64170000       0.00570000       0.83630000
    85  C          0.12279000       0.37065000       0.39575000
    86  C          0.37721000       0.87065000       0.10425000
    87  C          0.87721000       0.62935000       0.60425000
    88  C          0.62279000       0.12935000       0.89575000
    89  H          0.07250000       0.34050000       0.33790000
    90  H          0.42750000       0.84050000       0.16210000
    91  H          0.92750000       0.65950000       0.66210000
    92  H          0.57250000       0.15950000       0.83790000
    93  C          0.26069000       0.30784000       0.66035000
    94  C          0.23931000       0.80784000       0.83965000
    95  C          0.73931000       0.69216000       0.33965000
    96  C          0.76069000       0.19216000       0.16035000
    97  H          0.22260000       0.24500000       0.64610000
    98  H          0.27740000       0.74500000       0.85390000
    99  H          0.77740000       0.75500000       0.35390000
   100  H          0.72260000       0.25500000       0.14610000
   101  H          0.18450000       0.33270000       0.70790000
   102  H          0.31550000       0.83270000       0.79210000
   103  H          0.81550000       0.66730000       0.29210000
   104  H          0.68450000       0.16730000       0.20790000
   105  H          0.39620000       0.30990000       0.68640000
   106  H          0.10380000       0.80990000       0.81360000
   107  H          0.60380000       0.69010000       0.31360000
   108  H          0.89620000       0.19010000       0.18640000
