data_SIRNUG
_symmetry_space_group_name_H-M    'P1'
_symmetry_Int_Tables_number       1
loop_
_symmetry_equiv_pos_site_id
_symmetry_equiv_pos_as_xyz
1 x,y,z
_cell_length_a                   9.8788512
_cell_length_b                   10.4601813
_cell_length_c                   11.4830712
_cell_angle_alpha                100.93051
_cell_angle_beta                 105.305411
_cell_angle_gamma                112.679012
loop_
_atom_site_label
_atom_site_type_symbol
_atom_site_fract_x
_atom_site_fract_y
_atom_site_fract_z
     1  O          0.93032880       0.20611110       0.42668100
     2  O          0.06967120       0.79388890       0.57331900
     3  N          0.37412140       0.55891130       0.44627110
     4  N          0.62587860       0.44108870       0.55372890
     5  H          0.46520000       0.63520000       0.46121800
     6  H          0.53480000       0.36480000       0.53878200
     7  C          0.29261160       0.44403150       0.33251130
     8  C          0.70738840       0.55596850       0.66748870
     9  N          0.35694140       0.44663140       0.24222120
    10  N          0.64305860       0.55336860       0.75777880
    11  H          0.45320000       0.52320000       0.26781800
    12  H          0.54680000       0.47680000       0.73218200
    13  N          0.15858140       0.34368130       0.32865110
    14  N          0.84141860       0.65631870       0.67134890
    15  N          0.15615140       0.40235120       0.44782110
    16  N          0.84384860       0.59764880       0.55217890
    17  C          0.03861160       0.32893150       0.49174140
    18  C          0.96138840       0.67106850       0.50825860
    19  C          0.06152160       0.41513150       0.61676130
    20  C          0.93847840       0.58486850       0.38323870
    21  C          0.19229160       0.55162150       0.69078130
    22  C          0.80770840       0.44837850       0.30921870
    23  C          0.30798160       0.61215150       0.63984130
    24  C          0.69201840       0.38784850       0.36015870
    25  C          0.28510160       0.53211150       0.51784130
    26  C          0.71489840       0.46788850       0.48215870
    27  C          0.29501170       0.34391150       0.11906130
    28  C          0.70498830       0.65608850       0.88093870
    29  C          0.13802180       0.23723170       0.06025150
    30  C          0.86197820       0.76276830       0.93974850
    31  H          0.06590000       0.23080000       0.10230000
    32  H          0.93410000       0.76920000       0.89770000
    33  C          0.08828190       0.13987180       0.93856850
    34  C          0.91171810       0.86012820       0.06143150
    35  H         -0.01890000       0.06700000       0.89740000
    36  H          0.01890000       0.93300000       0.10260000
    37  C          0.19282190       0.14769180       0.87654850
    38  C          0.80717810       0.85230820       0.12345150
    39  H          0.15810000       0.07940000       0.79440000
    40  H          0.84190000       0.92060000       0.20560000
    41  C          0.34888190       0.25654180       0.93578850
    42  C          0.65111810       0.74345820       0.06421150
    43  H          0.42080000       0.26340000       0.89350000
    44  H          0.57920000       0.73660000       0.10650000
    45  C          0.39982170       0.35488170       0.05611140
    46  C          0.60017830       0.64511830       0.94388860
    47  H          0.50620000       0.42980000       0.09580000
    48  H          0.49380000       0.57020000       0.90420000
    49  C          0.93136830       0.35194150       0.65539130
    50  C          0.06863170       0.64805850       0.34460870
    51  N          0.81958850       0.29648140       0.67726130
    52  N          0.18041150       0.70351860       0.32273870
    53  C          0.21011160       0.63048160       0.82000130
    54  C          0.78988840       0.36951840       0.17999870
    55  C          0.25352170       0.78044160       0.85674140
    56  C          0.74647830       0.21955840       0.14325860
    57  H          0.26890000       0.83190000       0.79770000
    58  H          0.73110000       0.16810000       0.20230000
    59  C          0.27428180       0.85436160       0.97909140
    60  C          0.72571820       0.14563840       0.02090860
    61  H          0.30410000       0.95630000       0.00370000
    62  H          0.69590000       0.04370000      -0.00370000
    63  C          0.25145170       0.77930170       0.06577140
    64  C          0.74854830       0.22069830       0.93422860
    65  H          0.26580000       0.83010000       0.14950000
    66  H          0.73420000       0.16990000       0.85050000
    67  C          0.20758170       0.62989170       0.03002140
    68  C          0.79241830       0.37010830       0.96997860
    69  H          0.19130000       0.57880000       0.08920000
    70  H          0.80870000       0.42120000       0.91080000
    71  C          0.18757170       0.55538160       0.90782140
    72  C          0.81242830       0.44461840       0.09217860
    73  H          0.15870000       0.45370000       0.88390000
    74  H          0.84130000       0.54630000       0.11610000
    75  C          0.44758170       0.74971160       0.70142140
    76  C          0.55241830       0.25028840       0.29857860
    77  N          0.56198160       0.85887140       0.74045130
    78  N          0.43801840       0.14112860       0.25954870
    79  S          0.73840400       0.86862400       0.42677300
    80  S          0.26159600       0.13137600       0.57322700
    81  O          0.63433120       0.71002110       0.41226100
    82  O          0.36566880       0.28997890       0.58773900
    83  C          0.60602000       0.94489180       0.39068190
    84  C          0.39398000       0.05510820       0.60931810
    85  H          0.54470000       0.90580000       0.29850000
    86  H          0.45530000       0.09420000       0.70150000
    87  H          0.66620000       0.05180000       0.41700000
    88  H          0.33380000       0.94820000       0.58300000
    89  H          0.53400000       0.91900000       0.43660000
    90  H          0.46600000       0.08100000       0.56340000
    91  C          0.83449190       0.96161170       0.59410150
    92  C          0.16550810       0.03838830       0.40589850
    93  H          0.90010000       0.91870000       0.63190000
    94  H          0.09990000       0.08130000       0.36810000
    95  H          0.75510000       0.95180000       0.63260000
    96  H          0.24490000       0.04820000       0.36740000
    97  H          0.90130000       0.06570000       0.61010000
    98  H          0.09870000       0.93430000       0.38990000
