data_SIVBII
_symmetry_space_group_name_H-M    'P1'
_symmetry_Int_Tables_number       1
loop_
_symmetry_equiv_pos_site_id
_symmetry_equiv_pos_as_xyz
1 x,y,z
_cell_length_a                   4.6571
_cell_length_b                   11.1972
_cell_length_c                   15.4183
_cell_angle_alpha                104.49
_cell_angle_beta                 96.29
_cell_angle_gamma                98.51
loop_
_atom_site_label
_atom_site_type_symbol
_atom_site_fract_x
_atom_site_fract_y
_atom_site_fract_z
     1  N          0.70271000       0.78794000       0.05673000
     2  N          0.29729000       0.21206000       0.94327000
     3  C          0.57291200       0.87745000       0.12004000
     4  C          0.42708800       0.12255000       0.87996000
     5  C          0.79571400       0.96605000       0.19424000
     6  C          0.20428600       0.03395000       0.80576000
     7  O         -0.02792000       0.04754000       0.15622000
     8  O          0.02792000       0.95246000       0.84378000
     9  C          0.15101400       0.14835000       0.22514000
    10  C          0.84898600       0.85165000       0.77486000
    11  C          0.35811300       0.22305000       0.18254000
    12  C          0.64188700       0.77695000       0.81746000
    13  O          0.19498000       0.28573000       0.13063000
    14  O          0.80502000       0.71427000       0.86937000
    15  C          0.37231300       0.36645000       0.09154000
    16  C          0.62768700       0.63355000       0.90846000
    17  C          0.48441300       0.70455000       0.98266000
    18  C          0.51558700       0.29545000       0.01734000
    19  H          0.80276700       0.83152500       0.03611800
    20  H          0.19723300       0.16847500       0.96388200
    21  H          0.47360000       0.92530000       0.08680000
    22  H          0.52640000       0.07470000       0.91320000
    23  H          0.43370000       0.83140000       0.14670000
    24  H          0.56630000       0.16860000       0.85330000
    25  H          0.91660000       0.91960000       0.22230000
    26  H          0.08340000       0.08040000       0.77770000
    27  H          0.69790000       0.01390000       0.23860000
    28  H          0.30210000      -0.01390000       0.76140000
    29  H          0.02910000       0.20110000       0.25640000
    30  H         -0.02910000       0.79890000       0.74360000
    31  H          0.26080000       0.11550000       0.26730000
    32  H          0.73920000       0.88450000       0.73270000
    33  H          0.45930000       0.16800000       0.14380000
    34  H          0.54070000       0.83200000       0.85620000
    35  H          0.49830000       0.28350000       0.22890000
    36  H          0.50170000       0.71650000       0.77110000
    37  H          0.25110000       0.41590000       0.06680000
    38  H          0.74890000       0.58410000       0.93320000
    39  H          0.52280000       0.42070000       0.13810000
    40  H          0.47720000       0.57930000       0.86190000
    41  H          0.36190000       0.75370000       0.95820000
    42  H          0.63810000       0.24630000       0.04180000
    43  H          0.36600000       0.64570000       0.00600000
    44  H          0.63400000       0.35430000      -0.00600000
    45  C          0.40931200       0.65175000       0.33063000
    46  C          0.59068800       0.34825000       0.66937000
    47  C          0.50381200       0.56805000       0.37444000
    48  C          0.49618800       0.43195000       0.62556000
    49  C          0.73071300       0.60586000       0.44584000
    50  C          0.26928700       0.39414000       0.55416000
    51  C          0.86111400       0.72867000       0.47424000
    52  C          0.13888600       0.27133000       0.52576000
    53  C          0.77161400       0.81506000       0.43304000
    54  C          0.22838600       0.18494000       0.56696000
    55  C          0.54541400       0.77645000       0.36184000
    56  C          0.45458600       0.22355000       0.63816000
    57  C          0.17401200       0.60545000       0.25324000
    58  C          0.82598800       0.39455000       0.74676000
    59  N          0.09331000       0.68194000       0.21033000
    60  N          0.90669000       0.31806000       0.78967000
    61  O          0.87681000       0.62294000       0.13693000
    62  O          0.12319000       0.37706000       0.86307000
    63  N          0.11361400       0.77146000       0.54944000
    64  N          0.88638600       0.22854000       0.45056000
    65  O          0.18351100       0.69325000       0.58563000
    66  O          0.81648900       0.30675000       0.41437000
    67  O          0.22421100       0.88152000       0.57333000
    68  O          0.77578900       0.11848000       0.42667000
    69  H          0.40920000       0.48150000       0.35450000
    70  H          0.59080000       0.51850000       0.64550000
    71  H          0.79600000       0.54630000       0.47520000
    72  H          0.20400000       0.45370000       0.52480000
    73  H          0.86640000       0.90140000       0.45390000
    74  H          0.13360000       0.09860000       0.54610000
    75  H          0.48040000       0.83660000       0.33310000
    76  H          0.51960000       0.16340000       0.66690000
    77  H          0.08100000       0.51870000       0.23460000
    78  H          0.91900000       0.48130000       0.76540000
    79  H          0.85286000       0.68975200       0.11754000
    80  H          0.14714000       0.31024800       0.88246000
