data_SOBHOG
_symmetry_space_group_name_H-M    'P1'
_symmetry_Int_Tables_number       1
loop_
_symmetry_equiv_pos_site_id
_symmetry_equiv_pos_as_xyz
1 x,y,z
_cell_length_a                   9.322514
_cell_length_b                   10.6502
_cell_length_c                   11.3025
_cell_angle_alpha                117.323
_cell_angle_beta                 108.042
_cell_angle_gamma                98.17514
loop_
_atom_site_label
_atom_site_type_symbol
_atom_site_fract_x
_atom_site_fract_y
_atom_site_fract_z
     1  S          0.17053150       0.84397130       0.06402140
     2  S          0.82946850       0.15602870       0.93597860
     3  S          0.41438150       0.92829140       0.20246160
     4  S          0.58561850       0.07170860       0.79753840
     5  N          0.42605000       0.78354000       0.21745000
     6  N          0.57395000       0.21646000       0.78255000
     7  C         -0.00115000       0.43535000       0.00505000
     8  C          0.00115000       0.56465000      -0.00505000
     9  C          0.14605000       0.42835000       0.08865000
    10  C          0.85395000       0.57165000       0.91135000
    11  C          0.28465000       0.54235000       0.15855000
    12  C          0.71535000       0.45765000       0.84145000
    13  C          0.29175000       0.67365000       0.15235000
    14  C          0.70825000       0.32635000       0.84765000
    15  C          0.14635000       0.68135000       0.06835000
    16  C          0.85365000       0.31865000       0.93165000
    17  H          0.14500000       0.34100000       0.09300000
    18  H          0.85500000       0.65900000       0.90700000
    19  H          0.38100000       0.53500000       0.21200000
    20  H          0.61900000       0.46500000       0.78800000
    21  S          0.74053130       0.59559120       0.20367130
    22  S          0.25946870       0.40440880       0.79632870
    23  S          0.84004140       0.46636120       0.27171140
    24  S          0.15995860       0.53363880       0.72828860
    25  S          0.30980130       0.25390120       0.47939130
    26  S          0.69019870       0.74609880       0.52060870
    27  S          0.20863140       0.39062120       0.42628140
    28  S          0.79136860       0.60937880       0.57371860
    29  N          0.02314000       0.57664000       0.36384000
    30  N         -0.02314000       0.42336000       0.63616000
    31  N          0.02874000       0.27624000       0.32264000
    32  N          0.97126000       0.72376000       0.67736000
    33  C          0.10535000       0.97494000       0.37755000
    34  C          0.89465000       0.02506000       0.62245000
    35  C          0.23415000       0.94465000       0.45615000
    36  C          0.76585000       0.05535000       0.54385000
    37  C          0.20885000       0.81355000       0.45155000
    38  C          0.79115000       0.18645000       0.54845000
    39  C          0.05255000       0.70565000       0.37015000
    40  C          0.94745000       0.29435000       0.62985000
    41  C          0.92245000       0.73564000       0.29184000
    42  C          0.07755000       0.26436000       0.70816000
    43  C          0.94765000       0.86894000       0.29294000
    44  C          0.05235000       0.13106000       0.70706000
    45  C          0.82045000       0.89945000       0.21125000
    46  C          0.17955000       0.10055000       0.78875000
    47  C          0.84505000       0.03165000       0.21885000
    48  C          0.15495000       0.96835000       0.78115000
    49  C         -0.00085000       0.14204000       0.30675000
    50  C          0.00085000       0.85796000       0.69325000
    51  C          0.12865000       0.11094000       0.38244000
    52  C          0.87135000       0.88906000       0.61756000
    53  H          0.33800000       0.01800000       0.51200000
    54  H          0.66200000      -0.01800000       0.48800000
    55  H          0.29500000       0.79300000       0.50200000
    56  H          0.70500000       0.20700000       0.49800000
    57  H          0.71700000       0.82400000       0.15100000
    58  H          0.28300000       0.17600000       0.84900000
    59  H          0.76000000       0.05100000       0.16500000
    60  H          0.24000000       0.94900000       0.83500000
    61  F          0.50464000       0.31164000       0.11643000
    62  F          0.49536000       0.68836000       0.88357000
    63  F          0.32733000       0.17503000       0.14893000
    64  F          0.67267000       0.82497000       0.85107000
    65  F          0.49044000       0.41123000       0.33243000
    66  F          0.50956000       0.58877000       0.66757000
    67  F          0.59524000       0.22854000       0.26675000
    68  F          0.40476000       0.77146000       0.73325000
    69  B          0.47787000       0.27776000       0.21327000
    70  B          0.52213000       0.72224000       0.78673000
