data_SOBNEE
_symmetry_space_group_name_H-M    'P1'
_symmetry_Int_Tables_number       1
loop_
_symmetry_equiv_pos_site_id
_symmetry_equiv_pos_as_xyz
1 x,y,z
_cell_length_a                   6.82256
_cell_length_b                   8.61159
_cell_length_c                   10.720312
_cell_angle_alpha                67.9061
_cell_angle_beta                 86.0578
_cell_angle_gamma                78.3088
loop_
_atom_site_label
_atom_site_type_symbol
_atom_site_fract_x
_atom_site_fract_y
_atom_site_fract_z
     1  N          0.12133000       0.28842000       0.62119180
     2  N          0.87867000       0.71158000       0.37880820
     3  F          0.35392000       0.87561850       0.84625140
     4  F          0.64608000       0.12438150       0.15374860
     5  O          0.25442000       0.51082180       0.47665150
     6  O          0.74558000       0.48917820       0.52334850
     7  O          0.97848000       0.07212190       0.76358160
     8  O          0.02152000       0.92787810       0.23641840
     9  N          0.46303000       0.26822000       0.60408190
    10  N          0.53697000       0.73178000       0.39591810
    11  C          0.33323000       0.03563000       0.75372000
    12  C          0.66677000       0.96437000       0.24628000
    13  C          0.27843000       0.36383000       0.56262000
    14  C          0.72157000       0.63617000       0.43738000
    15  C          0.49063000       0.10533000       0.69932000
    16  C          0.50937000       0.89467000       0.30068000
    17  H          0.61940000       0.04390000       0.72560000
    18  H          0.38060000       0.95610000       0.27440000
    19  C          0.13153000       0.12613000       0.71802000
    20  C          0.86847000       0.87387000       0.28198000
    21  H          0.56740000       0.32630000       0.56930000
    22  H          0.43260000       0.67370000       0.43070000
    23  H         -0.00240000       0.35530000       0.59330000
    24  H          0.00240000       0.64470000       0.40670000
    25  O          0.77758000       0.87308000       0.95668170
    26  O          0.22242000       0.12692000       0.04331830
    27  H          0.87860000       0.90760000       0.92060000
    28  H          0.12140000       0.09240000       0.07940000
    29  C          0.91397000       0.38977000       0.25032000
    30  C          0.08603000       0.61023000       0.74968000
    31  O          0.81518000       0.15211810       0.42293160
    32  O          0.18482000       0.84788190       0.57706840
    33  O          0.14192000       0.15093810       0.38619160
    34  O          0.85808000       0.84906190       0.61380840
    35  H          0.15020000       0.05550000       0.44500000
    36  H          0.84980000       0.94450000       0.55500000
    37  C          0.82997000       0.71377000       0.05042000
    38  C          0.17003000       0.28623000       0.94958000
    39  C          0.95237000       0.22187000       0.35892000
    40  C          0.04763000       0.77813000       0.64108000
    41  C          0.67426000       0.63227000       0.11362000
    42  C          0.32574000       0.36773000       0.88638000
    43  H          0.54230000       0.68580000       0.08930000
    44  H          0.45770000       0.31420000       0.91070000
    45  C          0.06893000       0.47317000       0.18472000
    46  C          0.93107000       0.52683000       0.81528000
    47  H          0.20120000       0.41970000       0.20810000
    48  H          0.79880000       0.58030000       0.79190000
    49  C          0.71637000       0.47157000       0.21282000
    50  C          0.28363000       0.52843000       0.78718000
    51  H          0.61200000       0.41700000       0.25520000
    52  H          0.38800000       0.58300000       0.74480000
    53  C          0.02773000       0.63417000       0.08532000
    54  C          0.97227000       0.36583000       0.91468000
    55  H          0.13150000       0.68890000       0.04210000
    56  H          0.86850000       0.31110000       0.95790000
