data_SOCVOX
_symmetry_space_group_name_H-M    'P1'
_symmetry_Int_Tables_number       1
loop_
_symmetry_equiv_pos_site_id
_symmetry_equiv_pos_as_xyz
1 x,y,z
_cell_length_a                   8.87268
_cell_length_b                   10.58129
_cell_length_c                   11.20611
_cell_angle_alpha                94.04101
_cell_angle_beta                 104.40001
_cell_angle_gamma                90.71701
loop_
_atom_site_label
_atom_site_type_symbol
_atom_site_fract_x
_atom_site_fract_y
_atom_site_fract_z
     1  I          0.80118718       0.80548286       0.24712914
     2  I          0.19881282       0.19451714       0.75287086
     3  I          0.92668218       0.58311385       0.06584315
     4  I          0.07331782       0.41688615       0.93415685
     5  S          0.70894700       0.22960600       0.12829500
     6  S          0.29105300       0.77039400       0.87170500
     7  O          0.85726190       0.19324160       0.11180160
     8  O          0.14273810       0.80675840       0.88819840
     9  O          0.60182000       0.28499160       0.03073150
    10  O          0.39818000       0.71500840       0.96926850
    11  N          0.44302000       0.95430810       0.18457180
    12  N          0.55698000       0.04569190       0.81542820
    13  H          0.52330000       0.90480000       0.20820000
    14  H          0.47670000       0.09520000       0.79180000
    15  N          0.62722000       0.09206190       0.14842000
    16  N          0.37278000       0.90793810       0.85158000
    17  H          0.68230000       0.03430000       0.16530000
    18  H          0.31770000       0.96570000       0.83470000
    19  C          0.47343000       0.06952000       0.14832000
    20  C          0.52657000       0.93048000       0.85168000
    21  C          0.30023000       0.91338000       0.19072000
    22  C          0.69977000       0.08662000       0.80928000
    23  C          0.17773000      -0.00712000       0.15782000
    24  C          0.82227000       0.00712000       0.84218000
    25  H          0.07600000       0.96710000       0.16130000
    26  H          0.92400000       0.03290000       0.83870000
    27  C          0.20443000       0.11112000       0.11952000
    28  C          0.79557000       0.88888000       0.88048000
    29  H          0.11990000       0.16610000       0.09670000
    30  H          0.88010000       0.83390000       0.90330000
    31  C          0.35183000       0.15052000       0.11392000
    32  C          0.64817000       0.84948000       0.88608000
    33  H          0.36890000       0.23130000       0.08690000
    34  H          0.63110000       0.76870000       0.91310000
    35  C          0.28723000       0.78228000       0.22912000
    36  C          0.71277000       0.21772000       0.77088000
    37  H          0.27130000       0.72150000       0.15660000
    38  H          0.72870000       0.27850000       0.84340000
    39  H          0.19870000       0.77590000       0.26630000
    40  H          0.80130000       0.22410000       0.73370000
    41  H          0.38310000       0.76330000       0.28960000
    42  H          0.61690000       0.23670000       0.71040000
    43  C          0.73213000       0.32322000       0.26982000
    44  C          0.26787000       0.67678000       0.73018000
    45  C          0.64013000       0.43082000       0.27792000
    46  C          0.35987000       0.56918000       0.72208000
    47  C          0.66163000       0.49502000       0.39382000
    48  C          0.33837000       0.50498000       0.60618000
    49  H          0.60070000       0.56690000       0.40140000
    50  H          0.39930000       0.43310000       0.59860000
    51  C          0.76743000       0.45972000       0.49902000
    52  C          0.23257000       0.54028000       0.50098000
    53  C          0.85863000       0.35612000       0.48642000
    54  C          0.14137000       0.64388000       0.51358000
    55  H          0.93370000       0.33250000       0.55710000
    56  H          0.06630000       0.66750000       0.44290000
    57  C          0.84403000       0.28562000       0.37412000
    58  C          0.15597000       0.71438000       0.62588000
    59  C          0.52963000       0.48752000       0.17232000
    60  C          0.47037000       0.51248000       0.82768000
    61  H          0.49080000       0.56670000       0.20240000
    62  H          0.50920000       0.43330000       0.79760000
    63  H          0.44200000       0.42780000       0.13680000
    64  H          0.55800000       0.57220000       0.86320000
    65  H          0.58420000       0.50490000       0.10890000
    66  H          0.41580000       0.49510000       0.89110000
    67  C          0.78443000       0.53222000       0.62232000
    68  C          0.21557000       0.46778000       0.37768000
    69  H          0.72030000       0.60730000       0.61160000
    70  H          0.27970000       0.39270000       0.38840000
    71  H          0.89370000       0.55850000       0.65700000
    72  H          0.10630000       0.44150000       0.34300000
    73  H          0.75020000       0.47800000       0.67860000
    74  H          0.24980000       0.52200000       0.32140000
    75  C          0.95223000       0.17682000       0.37272000
    76  C          0.04777000       0.82318000       0.62728000
    77  H          0.89100000       0.09890000       0.33870000
    78  H          0.10900000       0.90110000       0.66130000
    79  H          0.01250000       0.16590000       0.45710000
    80  H         -0.01250000       0.83410000       0.54290000
    81  H          0.02320000       0.19500000       0.32120000
    82  H          0.97680000       0.80500000       0.67880000
    83  C          0.54083000       0.11743000       0.46852000
    84  C          0.45917000       0.88257000       0.53148000
    85  H          0.56840000       0.19820000       0.44700000
    86  H          0.43160000       0.80180000       0.55300000
    87  C          0.34803000       0.97287000       0.50433000
    88  C          0.65197000       0.02713000       0.49567000
    89  H          0.24390000       0.95460000       0.50730000
    90  H          0.75610000       0.04540000       0.49270000
    91  C          0.38853000       0.09123000       0.47242000
    92  C          0.61147000       0.90877000       0.52758000
    93  H          0.31210000       0.15380000       0.45340000
    94  H          0.68790000       0.84620000       0.54660000
