data_SOPNIU01
_symmetry_space_group_name_H-M    'P1'
_symmetry_Int_Tables_number       1
loop_
_symmetry_equiv_pos_site_id
_symmetry_equiv_pos_as_xyz
1 x,y,z
_cell_length_a                   9.385319
_cell_length_b                   9.8882
_cell_length_c                   10.2592
_cell_angle_alpha                90.0
_cell_angle_beta                 90.003
_cell_angle_gamma                90.0
loop_
_atom_site_label
_atom_site_type_symbol
_atom_site_fract_x
_atom_site_fract_y
_atom_site_fract_z
     1  S          0.48530300       0.14084300       0.77054300
     2  S          0.51469700       0.64084300       0.72945700
     3  S          0.51469700       0.85915700       0.22945700
     4  S          0.48530300       0.35915700       0.27054300
     5  O          0.42444100       0.16006900       0.63498900
     6  O          0.57555900       0.66006900       0.86501100
     7  O          0.57555900       0.83993100       0.36501100
     8  O          0.42444100       0.33993100       0.13498900
     9  O          0.49662100       0.26551900       0.83861900
    10  O          0.50337900       0.76551900       0.66138100
    11  O          0.50337900       0.73448100       0.16138100
    12  O          0.49662100       0.23448100       0.33861900
    13  O          0.62575100       0.07654900       0.75394900
    14  O          0.37424900       0.57654900       0.74605100
    15  O          0.37424900       0.92345100       0.24605100
    16  O          0.62575100       0.42345100       0.25394900
    17  O          0.38991100       0.05157900       0.84641900
    18  O          0.61008900       0.55157900       0.65358100
    19  O          0.61008900       0.94842100       0.15358100
    20  O          0.38991100       0.44842100       0.34641900
    21  O          0.32806110       0.11258100       0.07895100
    22  O          0.67193890       0.61258100       0.42104900
    23  O          0.67193890       0.88741900       0.92104900
    24  O          0.32806110       0.38741900       0.57895100
    25  H          0.36220000       0.18920000       0.09920000
    26  H          0.63780000       0.68920000       0.40080000
    27  H          0.63780000       0.81080000       0.90080000
    28  H          0.36220000       0.31080000       0.59920000
    29  H          0.35130000       0.05730000       0.13420000
    30  H          0.64870000       0.55730000       0.36580000
    31  H          0.64870000       0.94270000       0.86580000
    32  H          0.35130000       0.44270000       0.63420000
    33  H          0.35020000       0.09020000      -0.00680000
    34  H          0.64980000       0.59020000       0.50680000
    35  H          0.64980000       0.90980000       0.00680000
    36  H          0.35020000       0.40980000       0.49320000
    37  N          0.68723110       0.42707110       0.96709100
    38  N          0.31276890       0.92707110       0.53290900
    39  N          0.31276890       0.57292890       0.03290900
    40  N          0.68723110       0.07292890       0.46709100
    41  H          0.62550000       0.36560000       0.93290000
    42  H          0.37450000       0.86560000       0.56710000
    43  H          0.37450000       0.63440000       0.06710000
    44  H          0.62550000       0.13440000       0.43290000
    45  H          0.66330000       0.51140000       0.93920000
    46  H          0.33670000       0.01140000       0.56080000
    47  H          0.33670000       0.48860000       0.06080000
    48  H          0.66330000      -0.01140000       0.43920000
    49  H          0.68270000       0.42400000       0.05570000
    50  H          0.31730000       0.92400000       0.44430000
    51  H          0.31730000       0.57600000       0.94430000
    52  H          0.68270000       0.07600000       0.55570000
    53  C          0.80727150       0.18419140       0.05152140
    54  C          0.19272850       0.68419140       0.44847860
    55  C          0.19272850       0.81580860       0.94847860
    56  C          0.80727150       0.31580860       0.55152140
    57  H          0.80190000       0.22350000       0.13900000
    58  H          0.19810000       0.72350000       0.36100000
    59  H          0.19810000       0.77650000       0.86100000
    60  H          0.80190000       0.27650000       0.63900000
    61  H          0.85490000       0.09610000       0.05600000
    62  H          0.14510000       0.59610000       0.44400000
    63  H          0.14510000       0.90390000       0.94400000
    64  H          0.85490000       0.40390000       0.55600000
    65  H          0.71080000       0.17250000       0.01670000
    66  H          0.28920000       0.67250000       0.48330000
    67  H          0.28920000       0.82750000       0.98330000
    68  H          0.71080000       0.32750000       0.51670000
    69  C          0.89021140       0.27659130       0.96406120
    70  C          0.10978860       0.77659130       0.53593880
    71  C          0.10978860       0.72340870       0.03593880
    72  C          0.89021140       0.22340870       0.46406120
    73  C          0.83293130       0.39508130       0.92440120
    74  C          0.16706870       0.89508130       0.57559880
    75  C          0.16706870       0.60491870       0.07559880
    76  C          0.83293130       0.10491870       0.42440120
    77  C          0.90765140       0.48396130       0.84578120
    78  C          0.09234860       0.98396130       0.65421880
    79  C          0.09234860       0.51603870       0.15421880
    80  C          0.90765140       0.01603870       0.34578120
    81  H          0.86440000       0.56630000       0.81910000
    82  H          0.13560000       0.06630000       0.68090000
    83  H          0.13560000       0.43370000       0.18090000
    84  H          0.86440000       0.93370000       0.31910000
    85  C          0.04557140       0.45378150       0.80549130
    86  C          0.95442860       0.95378150       0.69450870
    87  C          0.95442860       0.54621850       0.19450870
    88  C          0.04557140       0.04621850       0.30549130
    89  H          0.09650000       0.51500000       0.75140000
    90  H          0.90350000       0.01500000       0.74860000
    91  H          0.90350000       0.48500000       0.24860000
    92  H          0.09650000       0.98500000       0.25140000
    93  C          0.10610150       0.33678150       0.84394140
    94  C          0.89389850       0.83678150       0.65605860
    95  C          0.89389850       0.66321850       0.15605860
    96  C          0.10610150       0.16321850       0.34394140
    97  H          0.20030000       0.31470000       0.81760000
    98  H          0.79970000       0.81470000       0.68240000
    99  H          0.79970000       0.68530000       0.18240000
   100  H          0.20030000       0.18530000       0.31760000
   101  C          0.02941150       0.24923140       0.92221140
   102  C          0.97058850       0.74923140       0.57778860
   103  C          0.97058850       0.75076860       0.07778860
   104  C          0.02941150       0.25076860       0.42221140
   105  H          0.07300000       0.16700000       0.94880000
   106  H          0.92700000       0.66700000       0.55120000
   107  H          0.92700000       0.83300000       0.05120000
   108  H          0.07300000       0.33300000       0.44880000
