data_SOQPAQ
_symmetry_space_group_name_H-M    'P1'
_symmetry_Int_Tables_number       1
loop_
_symmetry_equiv_pos_site_id
_symmetry_equiv_pos_as_xyz
1 x,y,z
_cell_length_a                   14.76406
_cell_length_b                   9.14306
_cell_length_c                   6.810012
_cell_angle_alpha                90.0
_cell_angle_beta                 92.1617
_cell_angle_gamma                90.0
loop_
_atom_site_label
_atom_site_type_symbol
_atom_site_fract_x
_atom_site_fract_y
_atom_site_fract_z
     1  N          0.59465900       0.31507150       0.86282000
     2  N          0.40534100       0.81507150       0.63718000
     3  N          0.40534100       0.68492850       0.13718000
     4  N          0.59465900       0.18492850       0.36282000
     5  N          0.55029900       0.53657160       0.79572000
     6  N          0.44970100       0.03657160       0.70428000
     7  N          0.44970100       0.46342840       0.20428000
     8  N          0.55029900       0.96342840       0.29572000
     9  O          0.67428900       0.73144130       0.89782000
    10  O          0.32571100       0.23144130       0.60218000
    11  O          0.32571100       0.26855870       0.10218000
    12  O          0.67428900       0.76855870       0.39782000
    13  O          0.80125900       0.65821140       0.04052000
    14  O          0.19874100       0.15821140       0.45948000
    15  O          0.19874100       0.34178860       0.95948000
    16  O          0.80125900       0.84178860       0.54052000
    17  N          0.69805100       0.49697160       0.96332000
    18  N          0.30194900      -0.00302840       0.53668000
    19  N          0.30194900       0.50302840       0.03668000
    20  N          0.69805100       0.00302840       0.46332000
    21  N          0.48293900       0.44607160       0.73052000
    22  N          0.51706100       0.94607160       0.76948000
    23  N          0.51706100       0.55392840       0.26948000
    24  N          0.48293900       0.05392840       0.23052000
    25  N          0.51013900       0.31579170       0.77252000
    26  N          0.48986100       0.81579170       0.72748000
    27  N          0.48986100       0.68420830       0.22748000
    28  N          0.51013900       0.18420830       0.27252000
    29  N          0.72556110       0.63695170       0.96592000
    30  N          0.27443890       0.13695170       0.53408000
    31  N          0.27443890       0.36304830       0.03408000
    32  N          0.72556110       0.86304830       0.46592000
    33  C          0.61631110       0.45471180       0.87403000
    34  C          0.38368890       0.95471180       0.62597000
    35  C          0.38368890       0.54528820       0.12597000
    36  C          0.61631110       0.04528820       0.37403000
    37  H          0.74201500       0.41930000       0.00430000
    38  H          0.25798500       0.91930000       0.49570000
    39  H          0.25798500       0.58070000      -0.00430000
    40  H          0.74201500       0.08070000       0.50430000
    41  H          0.54311100       0.64020000       0.77730000
    42  H          0.45688900       0.14020000       0.72270000
    43  H          0.45688900       0.35980000       0.22270000
    44  H          0.54311100       0.85980000       0.27730000
    45  N          0.93071900       0.32878150       0.66782000
    46  N          0.06928100       0.82878150       0.83218000
    47  N          0.06928100       0.67121850       0.33218000
    48  N          0.93071900       0.17121850       0.16782000
    49  N          0.89371900       0.20103150       0.63912000
    50  N          0.10628100       0.70103150       0.86088000
    51  N          0.10628100       0.79896850       0.36088000
    52  N          0.89371900       0.29896850       0.13912000
    53  N          0.81024900       0.22842150       0.56632000
    54  N          0.18975100       0.72842150       0.93368000
    55  N          0.18975100       0.77157850       0.43368000
    56  N          0.81024900       0.27157850       0.06632000
    57  N          0.72576120       0.44372000       0.49053000
    58  N          0.27423880       0.94372000       0.00947000
    59  N          0.27423880       0.55628000       0.50947000
    60  N          0.72576120       0.05628000      -0.00947000
    61  N          0.87789900       0.44307160       0.61982000
    62  N          0.12210100       0.94307160       0.88018000
    63  N          0.12210100       0.55692840       0.38018000
    64  N          0.87789900       0.05692840       0.11982000
    65  C          0.80215110       0.37588190       0.55593000
    66  C          0.19784890       0.87588190       0.94407000
    67  C          0.19784890       0.62411810       0.44407000
    68  C          0.80215110       0.12411810       0.05593000
    69  C          0.02395130       0.34393000       0.74474000
    70  C          0.97604870       0.84393000       0.75526000
    71  C          0.97604870       0.65607000       0.25526000
    72  C          0.02395130       0.15607000       0.24474000
    73  H          0.73231200       0.53820000       0.46630000
    74  H          0.26768800       0.03820000       0.03370000
    75  H          0.26768800       0.46180000       0.53370000
    76  H          0.73231200       0.96180000       0.96630000
    77  H          0.68451200       0.38820000       0.44130000
    78  H          0.31548800       0.88820000       0.05870000
    79  H          0.31548800       0.61180000       0.55870000
    80  H          0.68451200       0.11180000       0.94130000
    81  H          0.05031200       0.24920000       0.77530000
    82  H          0.94968800       0.74920000       0.72470000
    83  H          0.94968800       0.75080000       0.22470000
    84  H          0.05031200       0.25080000       0.27530000
    85  H          0.05931200       0.39320000       0.65330000
    86  H          0.94068800       0.89320000       0.84670000
    87  H          0.94068800       0.60680000       0.34670000
    88  H          0.05931200       0.10680000       0.15330000
    89  H          0.02391200       0.39920000       0.86230000
    90  H          0.97608800       0.89920000       0.63770000
    91  H          0.97608800       0.60080000       0.13770000
    92  H          0.02391200       0.10080000       0.36230000
