data_SORVUS
_symmetry_space_group_name_H-M    'P1'
_symmetry_Int_Tables_number       1
loop_
_symmetry_equiv_pos_site_id
_symmetry_equiv_pos_as_xyz
1 x,y,z
_cell_length_a                   8.94591
_cell_length_b                   9.02719
_cell_length_c                   12.543511
_cell_angle_alpha                72.4089
_cell_angle_beta                 87.3589
_cell_angle_gamma                73.5721
loop_
_atom_site_label
_atom_site_type_symbol
_atom_site_fract_x
_atom_site_fract_y
_atom_site_fract_z
     1  Br         0.62182400       0.15624500       0.48781400
     2  Br         0.37817600       0.84375500       0.51218600
     3  Br         0.86182400       0.39547500       0.42789500
     4  Br         0.13817600       0.60452500       0.57210500
     5  O          0.23224000       0.25654000       0.33772000
     6  O          0.76776000       0.74346000       0.66228000
     7  O          0.26834000       0.24124000       0.51482000
     8  O          0.73166000       0.75876000       0.48518000
     9  C          0.94055000       0.16695000       0.46653000
    10  C          0.05945000       0.83305000       0.53347000
    11  C          0.20965000       0.20885000       0.44123000
    12  C          0.79035000       0.79115000       0.55877000
    13  C          0.84025000       0.06775000       0.49343000
    14  C          0.15975000       0.93225000       0.50657000
    15  C          0.10085000       0.10025000       0.47323000
    16  C          0.89915000       0.89975000       0.52677000
    17  Br         0.04148700       0.81306700       0.26896400
    18  Br         0.95851300       0.18693300       0.73103600
    19  Br         0.13199700       0.31558600       0.89869600
    20  Br         0.86800300       0.68441400       0.10130400
    21  O          0.07334000       0.20214000       0.19593000
    22  O          0.92666000       0.79786000       0.80407000
    23  H          0.12640000       0.22640000       0.23590000
    24  H          0.87360000       0.77360000       0.76410000
    25  C          0.07535000       0.05265000       0.07043000
    26  C          0.92465000       0.94735000       0.92957000
    27  C          0.05685000       0.13275000       0.95597000
    28  C          0.94315000       0.86725000       0.04403000
    29  O          0.30414000       0.05625000       0.15693000
    30  O          0.69586000       0.94375000       0.84307000
    31  C          0.01815000       0.92005000       0.11333000
    32  C          0.98185000       0.07995000       0.88667000
    33  C          0.16396000       0.10396000       0.14684000
    34  C          0.83604000       0.89604000       0.85316000
    35  O          0.60075000       0.90194000       0.26833000
    36  O          0.39925000       0.09806000       0.73167000
    37  H          0.51730000       0.97000000       0.27750000
    38  H          0.48270000       0.03000000       0.72250000
    39  H          0.65530000       0.85930000       0.32930000
    40  H          0.34470000       0.14070000       0.67070000
    41  N          0.47965000       0.68745000       0.21354000
    42  N          0.52035000       0.31255000       0.78646000
    43  H          0.52820000       0.75230000       0.22330000
    44  H          0.47180000       0.24770000       0.77670000
    45  C          0.28316000       0.53186000       0.05234000
    46  C          0.71684000       0.46814000       0.94766000
    47  H          0.24090000       0.44480000       0.06790000
    48  H          0.75910000       0.55520000       0.93210000
    49  N          0.37705000       0.48785000       0.25003000
    50  N          0.62295000       0.51215000       0.74997000
    51  H          0.34850000       0.40380000       0.28670000
    52  H          0.65150000       0.59620000       0.71330000
    53  C          0.27857000       0.63426000       0.94636000
    54  C          0.72143000       0.36574000       0.05364000
    55  H          0.23110000       0.61700000       0.88850000
    56  H          0.76890000       0.38300000       0.11150000
    57  C          0.35375000       0.56425000       0.13554000
    58  C          0.64625000       0.43575000       0.86446000
    59  C          0.41956000       0.69315000       0.11184000
    60  C          0.58044000       0.30685000       0.88816000
    61  C          0.34327000       0.76496000       0.92216000
    62  C          0.65673000       0.23504000       0.07784000
    63  H          0.33700000       0.83220000       0.84890000
    64  H          0.66300000       0.16780000       0.15110000
    65  C          0.41547000       0.79566000       0.00384000
    66  C          0.58453000       0.20434000      -0.00384000
    67  H          0.45950000       0.88120000       0.98750000
    68  H          0.54050000       0.11880000       0.01250000
    69  C          0.44996000       0.56586000       0.29264000
    70  C          0.55004000       0.43414000       0.70736000
    71  H          0.47680000       0.53900000       0.36820000
    72  H          0.52320000       0.46100000       0.63180000
