data_SORWON
_symmetry_space_group_name_H-M    'P1'
_symmetry_Int_Tables_number       1
loop_
_symmetry_equiv_pos_site_id
_symmetry_equiv_pos_as_xyz
1 x,y,z
_cell_length_a                   9.06694
_cell_length_b                   11.15694
_cell_length_c                   12.86844
_cell_angle_alpha                106.5463
_cell_angle_beta                 106.5244
_cell_angle_gamma                100.2894
loop_
_atom_site_label
_atom_site_type_symbol
_atom_site_fract_x
_atom_site_fract_y
_atom_site_fract_z
     1  Br         0.77649600       0.40714500       0.40692400
     2  Br         0.22350400       0.59285500       0.59307600
     3  Br         0.40446700       0.21121500       0.30216400
     4  Br         0.59553300       0.78878500       0.69783600
     5  O          0.92404000       0.64994000       0.67842000
     6  O          0.07596000       0.35006000       0.32158000
     7  O          0.86784000       0.75323000       0.55662000
     8  O          0.13216000       0.24677000       0.44338000
     9  H          0.79280000       0.74260000       0.49820000
    10  H          0.20720000       0.25740000       0.50180000
    11  C          0.65715000       0.58094000       0.54623000
    12  C          0.34285000       0.41906000       0.45377000
    13  C          0.46026000       0.37924000       0.41453000
    14  C          0.53974000       0.62076000       0.58547000
    15  C          0.61675000       0.45964000       0.45973000
    16  C          0.38325000       0.54036000       0.54027000
    17  C          0.82916000       0.66515000       0.60103000
    18  C          0.17084000       0.33485000       0.39897000
    19  Br         0.00544700       0.08616500       0.77824700
    20  Br        -0.00544700       0.91383500       0.22175300
    21  Br         0.26304700       0.93146500       0.88018600
    22  Br         0.73695300       0.06853500       0.11981400
    23  O          0.64854000       0.06553000       0.83628000
    24  O          0.35146000       0.93447000       0.16372000
    25  H          0.59120000       0.11030000       0.81690000
    26  H          0.40880000       0.88970000       0.18310000
    27  O          0.81974000       0.25913000       0.95688000
    28  O          0.18026000       0.74087000       0.04312000
    29  C          0.89535000       0.06664000       0.95857000
    30  C          0.10465000       0.93336000       0.04143000
    31  C          0.11135000       0.97116000       0.94817000
    32  C          0.88865000       0.02884000       0.05183000
    33  C          0.78336000       0.14064000       0.91667000
    34  C          0.21664000       0.85936000       0.08333000
    35  C          0.00395000       0.03604000       0.90587000
    36  C         -0.00395000       0.96396000       0.09413000
    37  Br         0.83561600       0.07621500       0.45535400
    38  Br         0.16438400       0.92378500       0.54464600
    39  Br         0.74781600       0.29038400       0.64981300
    40  Br         0.25218400       0.70961600       0.35018700
    41  O          0.52954000       0.80337000       0.22823190
    42  O          0.47046000       0.19663000       0.77176810
    43  O          0.64664000       0.73257000       0.36465190
    44  O          0.35336000       0.26743000       0.63534810
    45  C          0.60475000       0.12224000       0.56243000
    46  C          0.39525000       0.87776000       0.43757000
    47  C          0.64325000       0.03204000       0.48263000
    48  C          0.35675000       0.96796000       0.51737000
    49  C          0.57645000       0.80766000       0.33163000
    50  C          0.42355000       0.19234000       0.66837000
    51  C          0.53705000       0.90916000       0.41943000
    52  C          0.46295000       0.09084000       0.58057000
    53  N          0.55445000       0.49963000       0.17163000
    54  N          0.44555000       0.50037000       0.82837000
    55  H          0.57040000       0.56520000       0.23240000
    56  H          0.42960000       0.43480000       0.76760000
    57  N          0.59725000       0.36254000       0.04043000
    58  N          0.40275000       0.63746000       0.95957000
    59  H          0.64520000       0.32170000      -0.00060000
    60  H          0.35480000       0.67830000       0.00060000
    61  C          0.66866000       0.46754000       0.13463000
    62  C          0.33134000       0.53246000       0.86537000
    63  C          0.40536000       0.41394000       0.09953000
    64  C          0.59464000       0.58606000       0.90047000
    65  C          0.43557000       0.32784000       0.01754000
    66  C          0.56443000       0.67216000       0.98246000
    67  H          0.35990000       0.25690000       0.95580000
    68  H          0.64010000       0.74310000       0.04420000
    69  C          0.83987000       0.53645000       0.18754000
    70  C          0.16013000       0.46355000       0.81246000
    71  H          0.85970000       0.60510000       0.25910000
    72  H          0.14030000       0.39490000       0.74090000
    73  H          0.87240000       0.57280000       0.13570000
    74  H          0.12760000       0.42720000       0.86430000
    75  H          0.89960000       0.47650000       0.20260000
    76  H          0.10040000       0.52350000       0.79740000
    77  C          0.25287000       0.42595000       0.11624000
    78  C          0.74713000       0.57405000       0.88376000
    79  H          0.23380000       0.50510000       0.10780000
    80  H          0.76620000       0.49490000       0.89220000
    81  H          0.25950000       0.42740000       0.19240000
    82  H          0.74050000       0.57260000       0.80760000
    83  H          0.16620000       0.35290000       0.05910000
    84  H          0.83380000       0.64710000       0.94090000
