data_SOTNEY
_symmetry_space_group_name_H-M    'P1'
_symmetry_Int_Tables_number       1
loop_
_symmetry_equiv_pos_site_id
_symmetry_equiv_pos_as_xyz
1 x,y,z
_cell_length_a                   9.54212
_cell_length_b                   9.83782
_cell_length_c                   12.70432
_cell_angle_alpha                89.6822
_cell_angle_beta                 88.4492
_cell_angle_gamma                63.9932
loop_
_atom_site_label
_atom_site_type_symbol
_atom_site_fract_x
_atom_site_fract_y
_atom_site_fract_z
     1  I          0.97914600       0.60414400       0.66558300
     2  I          0.02085400       0.39585600       0.33441700
     3  C          0.13718000       0.67388000       0.73025000
     4  C          0.86282000       0.32612000       0.26975000
     5  C          0.95391000       0.49418000       0.80225000
     6  C          0.04609000       0.50582000       0.19775000
     7  C          0.28898000       0.56749000       0.75045000
     8  C          0.71102000       0.43251000       0.24955000
     9  H          0.32100000       0.46290000       0.73720000
    10  H          0.67900000       0.53710000       0.26280000
    11  C          0.08379000       0.82678000       0.75045000
    12  C          0.91621000       0.17322000       0.24955000
    13  H          0.97900000       0.89690000       0.73800000
    14  H          0.02100000       0.10310000       0.26200000
    15  C          0.81389000       0.56491000       0.85976000
    16  C          0.18611000       0.43509000       0.14024000
    17  H          0.73430000       0.66030000       0.84010000
    18  H          0.26570000       0.33970000       0.15990000
    19  C          0.07351100       0.35769000       0.82856000
    20  C          0.92648900       0.64231000       0.17144000
    21  H          0.16800000       0.31350000       0.78780000
    22  H          0.83200000       0.68650000       0.21220000
    23  C          0.39291000       0.61821300       0.79066000
    24  C          0.60709000       0.38178700       0.20934000
    25  H          0.49680000       0.54800000       0.80540000
    26  H          0.50320000       0.45200000       0.19460000
    27  C          0.34381100       0.77141400       0.80896000
    28  C          0.65618900       0.22858600       0.19104000
    29  H          0.41540000       0.80570000       0.83440000
    30  H          0.58460000       0.19430000       0.16560000
    31  C          0.19351200       0.87371100       0.79066000
    32  C          0.80648800       0.12628900       0.20934000
    33  H          0.16180000       0.97790000       0.80500000
    34  H          0.83820000       0.02210000       0.19500000
    35  C          0.79778500       0.48621600       0.94837000
    36  C          0.20221500       0.51378400       0.05163000
    37  H          0.70430000       0.52750000      -0.00990000
    38  H          0.29570000       0.47250000       0.00990000
    39  C          0.91928200       0.34711400       0.97507000
    40  C          0.08071800       0.65288600       0.02493000
    41  H          0.90790000       0.29510000       0.03530000
    42  H          0.09210000       0.70490000       0.96470000
    43  C          0.04921800       0.28741400       0.91777000
    44  C          0.95078200       0.71258600       0.08223000
    45  H          0.12950000       0.19270000       0.93800000
    46  H          0.87050000       0.80730000       0.06200000
    47  S          0.57664180       0.07273180       0.76995120
    48  S          0.42335820       0.92726820       0.23004880
    49  F          0.60961000       0.26367000       0.89925000
    50  F          0.39039000       0.73633000       0.10075000
    51  C          0.61151000       0.13049000       0.89846000
    52  C          0.38849000       0.86951000       0.10154000
    53  F          0.49861400       0.15221600       0.96466000
    54  F          0.50138600       0.84778400       0.03534000
    55  F          0.73101300       0.03739000       0.94006000
    56  F          0.26898700       0.96261000       0.05994000
    57  O          0.70681200       0.06161500       0.71096000
    58  O          0.29318800       0.93838500       0.28904000
    59  O          0.58320000       0.93208600       0.78557000
    60  O          0.41680000       0.06791400       0.21443000
    61  O          0.44671400       0.19171500       0.73671000
    62  O          0.55328600       0.80828500       0.26329000
    63  O          0.24115000       0.26525000       0.52263000
    64  O          0.75885000       0.73475000       0.47737000
    65  O          0.03195000       0.77605000       0.49423000
    66  O          0.96805000       0.22395000       0.50577000
    67  O          0.25635000       0.49505000       0.39174000
    68  O          0.74365000       0.50495000       0.60826000
    69  C          0.91381000       0.85518000       0.42155000
    70  C          0.08619000       0.14482000       0.57845000
    71  H          0.93700000       0.79720000       0.35460000
    72  H          0.06300000       0.20280000       0.64540000
    73  H          0.91200000       0.95470000       0.40640000
    74  H          0.08800000       0.04530000       0.59360000
    75  C          0.38218000       0.25258000       0.47315000
    76  C          0.61782000       0.74742000       0.52685000
    77  H          0.39550000       0.20560000       0.40250000
    78  H          0.60450000       0.79440000       0.59750000
    79  H          0.47230000       0.18790000       0.51570000
    80  H          0.52770000       0.81210000       0.48430000
    81  C          0.18528000       0.75138000       0.45985000
    82  C          0.81472000       0.24862000       0.54015000
    83  H          0.25550000       0.71540000       0.52020000
    84  H          0.74450000       0.28460000       0.47980000
    85  H          0.18200000       0.84900000       0.43690000
    86  H          0.81800000       0.15100000       0.56310000
    87  C          0.25279000       0.63818000       0.37066000
    88  C          0.74721000       0.36182000       0.62934000
    89  H          0.19050000       0.68060000       0.30720000
    90  H          0.80950000       0.31940000       0.69280000
    91  H          0.36040000       0.62380000       0.35430000
    92  H          0.63960000       0.37620000       0.64570000
    93  C          0.24158000       0.12297000       0.53485000
    94  C          0.75842000       0.87703000       0.46515000
    95  H          0.32440000       0.06010000       0.58330000
    96  H          0.67560000       0.93990000       0.41670000
    97  H          0.26250000       0.07020000       0.46590000
    98  H          0.73750000       0.92980000       0.53410000
    99  C          0.37398000       0.40659000       0.46336000
   100  C          0.62602000       0.59341000       0.53664000
   101  H          0.35010000       0.45660000       0.53320000
   102  H          0.64990000       0.54340000       0.46680000
   103  H          0.47620000       0.39860000       0.43780000
   104  H          0.52380000       0.60140000       0.56220000
