data_SOWJIY
_symmetry_space_group_name_H-M    'P1'
_symmetry_Int_Tables_number       1
loop_
_symmetry_equiv_pos_site_id
_symmetry_equiv_pos_as_xyz
1 x,y,z
_cell_length_a                   6.66888
_cell_length_b                   7.59841
_cell_length_c                   8.285111
_cell_angle_alpha                100.15711
_cell_angle_beta                 106.9879
_cell_angle_gamma                92.9449
loop_
_atom_site_label
_atom_site_type_symbol
_atom_site_fract_x
_atom_site_fract_y
_atom_site_fract_z
     1  N          0.12403000       0.62392000       0.19302000
     2  N          0.87597000       0.37608000       0.80698000
     3  C          0.89096000       0.83883000       0.11203000
     4  C          0.10904000       0.16117000       0.88797000
     5  H          0.76310000       0.88360000       0.10890000
     6  H          0.23690000       0.11640000       0.89110000
     7  C          0.02524000       0.92133000       0.04053000
     8  C         -0.02524000       0.07867000       0.95947000
     9  C          0.94136000       0.69323000       0.18713000
    10  C          0.05864000       0.30677000       0.81287000
    11  H          0.84800000       0.64210000       0.23460000
    12  H          0.15200000       0.35790000       0.76540000
    13  C          0.21434000       0.84443000       0.05033000
    14  C          0.78566000       0.15557000       0.94967000
    15  H          0.31090000       0.89380000       0.00480000
    16  H          0.68910000       0.10620000      -0.00480000
    17  C          0.25954000       0.70063000       0.12403000
    18  C          0.74046000       0.29937000       0.87597000
    19  H          0.38610000       0.65300000       0.12770000
    20  H          0.61390000       0.34700000       0.87230000
    21  O          0.17053000       0.48352000       0.26522000
    22  O          0.82947000       0.51648000       0.73478000
    23  C          0.59143000       0.13533000       0.43503000
    24  C          0.40857000       0.86467000       0.56497000
    25  C          0.69493000      -0.01393000       0.47703000
    26  C          0.30507000       0.01393000       0.52297000
    27  H          0.82700000       0.97500000       0.46220000
    28  H          0.17300000       0.02500000       0.53780000
    29  C          0.39373000       0.14563000       0.46013000
    30  C          0.60627000       0.85437000       0.53987000
    31  H          0.31990000       0.24270000       0.43400000
    32  H          0.68010000       0.75730000       0.56600000
    33  B          0.69814000       0.28333000       0.36563000
    34  B          0.30186000       0.71667000       0.63437000
    35  O          0.59413000       0.41072000       0.28792000
    36  O          0.40587000       0.58928000       0.71208000
    37  H          0.47410000       0.40670000       0.29550000
    38  H          0.52590000       0.59330000       0.70450000
    39  O          0.90402000       0.27172000       0.37562000
    40  O          0.09598000       0.72828000       0.62438000
    41  H          0.94700000       0.35450000       0.33860000
    42  H          0.05300000       0.64550000       0.66140000
