data_SUCTIV
_symmetry_space_group_name_H-M    'P1'
_symmetry_Int_Tables_number       1
loop_
_symmetry_equiv_pos_site_id
_symmetry_equiv_pos_as_xyz
1 x,y,z
_cell_length_a                   5.80258
_cell_length_b                   18.1582
_cell_length_c                   6.81848
_cell_angle_alpha                90.0
_cell_angle_beta                 101.0194
_cell_angle_gamma                90.0
loop_
_atom_site_label
_atom_site_type_symbol
_atom_site_fract_x
_atom_site_fract_y
_atom_site_fract_z
     1  H          0.02240000       0.57321100       0.32330000
     2  H          0.47760000       0.07321100       0.17670000
     3  H         -0.02240000       0.42678900       0.67670000
     4  H          0.52240000       0.92678900       0.82330000
     5  H          0.86030000       0.56501100       0.47930000
     6  H          0.63970000       0.06501100       0.02070000
     7  H          0.13970000       0.43498900       0.52070000
     8  H          0.36030000       0.93498900      -0.02070000
     9  H          0.13940000       0.65411000       0.14530000
    10  H          0.36060000       0.15411000       0.35470000
    11  H          0.86060000       0.34589000       0.85470000
    12  H          0.63940000       0.84589000       0.64530000
    13  H          0.69940000       0.77691200       0.03330000
    14  H          0.80060000       0.27691200       0.46670000
    15  H          0.30060000       0.22308800       0.96670000
    16  H          0.19940000       0.72308800       0.53330000
    17  H         -0.02060000       0.61901200       0.94770000
    18  H          0.52060000       0.11901200       0.55230000
    19  H          0.02060000       0.38098800       0.05230000
    20  H          0.47940000       0.88098800       0.44770000
    21  H          0.03440000       0.70711200       0.96870000
    22  H          0.46560000       0.20711200       0.53130000
    23  H          0.96560000       0.29288800       0.03130000
    24  H          0.53440000       0.79288800       0.46870000
    25  H          0.56740000       0.71631300       0.89460000
    26  H          0.93260000       0.21631300       0.60540000
    27  H          0.43260000       0.28368700       0.10540000
    28  H          0.06740000       0.78368700       0.39460000
    29  H          0.49640000       0.73561200       0.10740000
    30  H          0.00360000       0.23561200       0.39260000
    31  H          0.50360000       0.26438800       0.89260000
    32  H         -0.00360000       0.76438800       0.60740000
    33  O          0.56933170       0.65460600       0.36301150
    34  O          0.93066830       0.15460600       0.13698850
    35  O          0.43066830       0.34539400       0.63698850
    36  O          0.06933170       0.84539400       0.86301150
    37  N          0.79312000       0.67530600       0.13011180
    38  N          0.70688000       0.17530600       0.36988820
    39  N          0.20688000       0.32469400       0.86988820
    40  N          0.29312000       0.82469400       0.63011180
    41  C          0.74892000       0.63899800       0.29102000
    42  C          0.75108000       0.13899800       0.20898000
    43  C          0.25108000       0.36100200       0.70898000
    44  C          0.24892000       0.86100200       0.79102000
    45  N          0.89892000       0.58624700       0.37472000
    46  N          0.60108000       0.08624700       0.12528000
    47  N          0.10108000       0.41375300       0.62528000
    48  N          0.39892000       0.91375300       0.87472000
    49  C          0.62763000       0.72983800       0.03002000
    50  C          0.87237000       0.22983800       0.46998000
    51  C          0.37237000       0.27016200       0.96998000
    52  C          0.12763000       0.77016200       0.53002000
    53  C          0.00173000       0.66197100       0.04503000
    54  C          0.49827000       0.16197100       0.45497000
    55  C         -0.00173000       0.33802900       0.95497000
    56  C          0.50173000       0.83802900       0.54503000
    57  H          0.29130000       0.53919000       0.93430000
    58  H          0.20870000       0.03919000       0.56570000
    59  H          0.70870000       0.46081000       0.06570000
    60  H          0.79130000       0.96081000       0.43430000
    61  H          0.49740000       0.61531100       0.53530000
    62  H          0.00260000       0.11531100       0.96470000
    63  H          0.50260000       0.38468900       0.46470000
    64  H         -0.00260000       0.88468900       0.03530000
    65  O          0.42679180       0.59712600       0.65100160
    66  O          0.07320820       0.09712600       0.84899840
    67  O          0.57320820       0.40287400       0.34899840
    68  O          0.92679180       0.90287400       0.15100160
    69  C          0.55082000       0.54593800       0.75832000
    70  C          0.94918000       0.04593800       0.74168000
    71  C          0.44918000       0.45406200       0.24168000
    72  C          0.05082000       0.95406200       0.25832000
    73  O          0.73649190       0.52107600       0.72523160
    74  O          0.76350810       0.02107600       0.77476840
    75  O          0.26350810       0.47892400       0.27476840
    76  O          0.23649190       0.97892400       0.22523160
    77  C          0.44353000       0.52189800       0.92932000
    78  C          0.05647000       0.02189800       0.57068000
    79  C          0.55647000       0.47810200       0.07068000
    80  C          0.94353000       0.97810200       0.42932000
