data_SUFXEA
_symmetry_space_group_name_H-M    'P1'
_symmetry_Int_Tables_number       1
loop_
_symmetry_equiv_pos_site_id
_symmetry_equiv_pos_as_xyz
1 x,y,z
_cell_length_a                   8.83072
_cell_length_b                   9.46802
_cell_length_c                   10.20702
_cell_angle_alpha                71.2822
_cell_angle_beta                 78.4242
_cell_angle_gamma                83.3502
loop_
_atom_site_label
_atom_site_type_symbol
_atom_site_fract_x
_atom_site_fract_y
_atom_site_fract_z
     1  I          0.37822300       0.74595300       0.78717300
     2  I          0.62177700       0.25404700       0.21282700
     3  O          0.90774000       0.52933000       0.76133000
     4  O          0.09226000       0.47067000       0.23867000
     5  O          0.93233000       0.79593000       0.53083000
     6  O          0.06767000       0.20407000       0.46917000
     7  O          0.94414000       0.75013000       0.26573000
     8  O          0.05586000       0.24987000       0.73427000
     9  C          0.04186000       0.73365000       0.14294000
    10  C          0.95814000       0.26635000       0.85706000
    11  H          0.14826100       0.74603000       0.14660000
    12  H          0.85173900       0.25397000       0.85340000
    13  H          0.01296200       0.81008700       0.06110000
    14  H          0.98703800       0.18991300       0.93890000
    15  C          0.97146000       0.41635000       0.86944000
    16  C          0.02854000       0.58365000       0.13056000
    17  H          0.91679700       0.42114800       0.96044900
    18  H          0.08320300       0.57885200       0.03955100
    19  H          0.07943600       0.43301900       0.86229100
    20  H          0.92056400       0.56698100       0.13770900
    21  C          0.95786000       0.89155000       0.28175000
    22  C          0.04214000       0.10845000       0.71825000
    23  H          0.92067300       0.97041000       0.20575900
    24  H          0.07932700       0.02959000       0.79424100
    25  H          0.06553200       0.90613700       0.27877600
    26  H          0.93446800       0.09386300       0.72122400
    27  C          0.91346000       0.67275000       0.77595000
    28  C          0.08654000       0.32725000       0.22405000
    29  H          0.01998800       0.69463800       0.76814100
    30  H          0.98001200       0.30536200       0.23185900
    31  H          0.85767900       0.67499200       0.86738500
    32  H          0.14232100       0.32500800       0.13261500
    33  C          0.86416000       0.89695000       0.41975000
    34  C          0.13584000       0.10305000       0.58025000
    35  H          0.85965600      -0.00257300       0.42600000
    36  H          0.14034400       0.00257300       0.57400000
    37  H          0.75922400       0.87039000       0.42691000
    38  H          0.24077600       0.12961000       0.57309000
    39  C          0.84156000       0.78635000       0.66335000
    40  C          0.15844000       0.21365000       0.33665000
    41  H          0.73827700       0.75869500       0.66582300
    42  H          0.26172300       0.24130500       0.33417700
    43  H          0.83265100       0.88279900       0.67909500
    44  H          0.16734900       0.11720100       0.32090500
    45  N          0.66784000       0.37174000       0.60183000
    46  N          0.33216000       0.62826000       0.39817000
    47  C          0.46425000       0.20544000       0.81804000
    48  C          0.53575000       0.79456000       0.18196000
    49  N          0.27496000       0.05406000       0.03005000
    50  N          0.72504000       0.94594000       0.96995000
    51  C          0.60855000       0.42065000       0.71105000
    52  C          0.39145000       0.57935000       0.28895000
    53  H          0.63711100       0.51165300       0.71207500
    54  H          0.36288900       0.48834700       0.28792500
    55  C          0.50665000       0.33995000       0.82135000
    56  C          0.49335000       0.66005000       0.17865000
    57  H          0.46647300       0.37488100       0.89738500
    58  H          0.53352700       0.62511900       0.10261500
    59  C          0.35756000       0.11815000       0.93615000
    60  C          0.64244000       0.88185000       0.06385000
    61  C          0.62916000       0.24005000       0.59755000
    62  C          0.37084000       0.75995000       0.40245000
    63  H          0.67232500       0.20680500       0.52095200
    64  H          0.32767500       0.79319500       0.47904800
    65  C          0.78136000       0.46126000       0.48525000
    66  C          0.21864000       0.53874000       0.51475000
    67  H          0.73527600       0.50080700       0.40220000
    68  H          0.26472400       0.49919300       0.59780000
    69  H          0.87149300       0.39869100       0.46691100
    70  H          0.12850700       0.60130900       0.53308900
    71  H          0.81035300       0.54190300       0.51103100
    72  H          0.18964700       0.45809700       0.48896900
    73  C          0.52706000       0.15475000       0.70445000
    74  C          0.47294000       0.84525000       0.29555000
    75  H          0.50005200       0.06403300       0.70100500
    76  H          0.49994800       0.93596700       0.29899500
