data_SUHPAQ
_symmetry_space_group_name_H-M    'P1'
_symmetry_Int_Tables_number       1
loop_
_symmetry_equiv_pos_site_id
_symmetry_equiv_pos_as_xyz
1 x,y,z
_cell_length_a                   8.559101
_cell_length_b                   12.04062
_cell_length_c                   32.11305
_cell_angle_alpha                90.0
_cell_angle_beta                 93.85101
_cell_angle_gamma                90.0
loop_
_atom_site_label
_atom_site_type_symbol
_atom_site_fract_x
_atom_site_fract_y
_atom_site_fract_z
     1  C          0.01473000       0.50222000       0.83852800
     2  C         -0.01473000       0.50222000       0.66147200
     3  C          0.51473000       0.00222000       0.83852800
     4  C          0.48527000       0.00222000       0.66147200
     5  C         -0.01473000       0.49778000       0.16147200
     6  C          0.01473000       0.49778000       0.33852800
     7  C          0.48527000      -0.00222000       0.16147200
     8  C          0.51473000      -0.00222000       0.33852800
     9  C          0.04984000       0.56222000       0.87482900
    10  C          0.95016000       0.56222000       0.62517100
    11  C          0.54984000       0.06222000       0.87482900
    12  C          0.45016000       0.06222000       0.62517100
    13  C          0.95016000       0.43778000       0.12517100
    14  C          0.04984000       0.43778000       0.37482900
    15  C          0.45016000       0.93778000       0.12517100
    16  C          0.54984000       0.93778000       0.37482900
    17  H          0.00850000       0.63500000       0.87740000
    18  H         -0.00850000       0.63500000       0.62260000
    19  H          0.50850000       0.13500000       0.87740000
    20  H          0.49150000       0.13500000       0.62260000
    21  H         -0.00850000       0.36500000       0.12260000
    22  H          0.00850000       0.36500000       0.37740000
    23  H          0.49150000       0.86500000       0.12260000
    24  H          0.50850000       0.86500000       0.37740000
    25  C          0.14474000       0.51753000       0.90744900
    26  C          0.85526000       0.51753000       0.59255100
    27  C          0.64474000       0.01753000       0.90744900
    28  C          0.35526000       0.01753000       0.59255100
    29  C          0.85526000       0.48247000       0.09255100
    30  C          0.14474000       0.48247000       0.40744900
    31  C          0.35526000       0.98247000       0.09255100
    32  C          0.64474000       0.98247000       0.40744900
    33  H          0.16950000       0.55960000       0.93200000
    34  H          0.83050000       0.55960000       0.56800000
    35  H          0.66950000       0.05960000       0.93200000
    36  H          0.33050000       0.05960000       0.56800000
    37  H          0.83050000       0.44040000       0.06800000
    38  H          0.16950000       0.44040000       0.43200000
    39  H          0.33050000       0.94040000       0.06800000
    40  H          0.66950000       0.94040000       0.43200000
    41  C          0.20253000       0.41092000       0.90368800
    42  C          0.79747000       0.41092000       0.59631200
    43  C          0.70253000       0.91092000       0.90368800
    44  C          0.29747000       0.91092000       0.59631200
    45  C          0.79747000       0.58908000       0.09631200
    46  C          0.20253000       0.58908000       0.40368800
    47  C          0.29747000       0.08908000       0.09631200
    48  C          0.70253000       0.08908000       0.40368800
    49  C          0.16814000       0.34983000       0.86767100
    50  C          0.83186000       0.34983000       0.63232900
    51  C          0.66814000       0.84983000       0.86767100
    52  C          0.33186000       0.84983000       0.63232900
    53  C          0.83186000       0.65017000       0.13232900
    54  C          0.16814000       0.65017000       0.36767100
    55  C          0.33186000       0.15017000       0.13232900
    56  C          0.66814000       0.15017000       0.36767100
    57  H          0.20780000       0.27650000       0.86540000
    58  H          0.79220000       0.27650000       0.63460000
    59  H          0.70780000       0.77650000       0.86540000
    60  H          0.29220000       0.77650000       0.63460000
    61  H          0.79220000       0.72350000       0.13460000
    62  H          0.20780000       0.72350000       0.36540000
    63  H          0.29220000       0.22350000       0.13460000
    64  H          0.70780000       0.22350000       0.36540000
    65  C          0.07594000       0.39562000       0.83495900
    66  C          0.92406000       0.39562000       0.66504100
    67  C          0.57594000       0.89562000       0.83495900
    68  C          0.42406000       0.89562000       0.66504100
    69  C          0.92406000       0.60438000       0.16504100
    70  C          0.07594000       0.60438000       0.33495900
    71  C          0.42406000       0.10438000       0.16504100
    72  C          0.57594000       0.10438000       0.33495900
    73  H          0.05440000       0.35420000       0.81000000
    74  H          0.94560000       0.35420000       0.69000000
    75  H          0.55440000       0.85420000       0.81000000
    76  H          0.44560000       0.85420000       0.69000000
    77  H          0.94560000       0.64580000       0.19000000
    78  H          0.05440000       0.64580000       0.31000000
    79  H          0.44560000       0.14580000       0.19000000
    80  H          0.55440000       0.14580000       0.31000000
    81  C          0.91163000       0.54782000       0.80412800
    82  C          0.08837000       0.54782000       0.69587200
    83  C          0.41163000       0.04782000       0.80412800
    84  C          0.58837000       0.04782000       0.69587200
    85  C          0.08837000       0.45218000       0.19587200
    86  C          0.91163000       0.45218000       0.30412800
    87  C          0.58837000       0.95218000       0.19587200
    88  C          0.41163000       0.95218000       0.30412800
    89  N          0.83163000       0.48888190       0.77655700
    90  N          0.16837000       0.48888190       0.72344300
    91  N          0.33163000      -0.01111810       0.77655700
    92  N          0.66837000      -0.01111810       0.72344300
    93  N          0.16837000       0.51111810       0.22344300
    94  N          0.83163000       0.51111810       0.27655700
    95  N          0.66837000       0.01111810       0.22344300
    96  N          0.33163000       0.01111810       0.27655700
    97  N          0.74513000       0.55282000       0.74752700
    98  N          0.25487000       0.55282000       0.75247300
    99  N          0.24513000       0.05282000       0.74752700
   100  N          0.75487000       0.05282000       0.75247300
   101  N          0.25487000       0.44718000       0.25247300
   102  N          0.74513000       0.44718000       0.24752700
   103  N          0.75487000       0.94718000       0.25247300
   104  N          0.24513000       0.94718000       0.24752700
   105  C          0.76264000       0.65962000       0.75377900
   106  C          0.23736000       0.65962000       0.74622100
   107  C          0.26264000       0.15962000       0.75377900
   108  C          0.73736000       0.15962000       0.74622100
   109  C          0.23736000       0.34038000       0.24622100
   110  C          0.76264000       0.34038000       0.25377900
   111  C          0.73736000       0.84038000       0.24622100
   112  C          0.26264000       0.84038000       0.25377900
   113  S          0.88736900       0.69058600       0.79703200
   114  S          0.11263100       0.69058600       0.70296800
   115  S          0.38736900       0.19058600       0.79703200
   116  S          0.61263100       0.19058600       0.70296800
   117  S          0.11263100       0.30941400       0.20296800
   118  S          0.88736900       0.30941400       0.29703200
   119  S          0.61263100       0.80941400       0.20296800
   120  S          0.38736900       0.80941400       0.29703200
   121  N          0.69253000       0.73642000       0.72892800
   122  N          0.30747000       0.73642000       0.77107200
   123  N          0.19253000       0.23642000       0.72892800
   124  N          0.80747000       0.23642000       0.77107200
   125  N          0.30747000       0.26358000       0.27107200
   126  N          0.69253000       0.26358000       0.22892800
   127  N          0.80747000       0.76358000       0.27107200
   128  N          0.19253000       0.76358000       0.22892800
   129  H          0.63130000       0.71600000       0.70720000
   130  H          0.36870000       0.71600000       0.79280000
   131  H          0.13130000       0.21600000       0.70720000
   132  H          0.86870000       0.21600000       0.79280000
   133  H          0.36870000       0.28400000       0.29280000
   134  H          0.63130000       0.28400000       0.20720000
   135  H          0.86870000       0.78400000       0.29280000
   136  H          0.13130000       0.78400000       0.20720000
   137  H          0.70760000       0.80740000       0.73430000
   138  H          0.29240000       0.80740000       0.76570000
   139  H          0.20760000       0.30740000       0.73430000
   140  H          0.79240000       0.30740000       0.76570000
   141  H          0.29240000       0.19260000       0.26570000
   142  H          0.70760000       0.19260000       0.23430000
   143  H          0.79240000       0.69260000       0.26570000
   144  H          0.20760000       0.69260000       0.23430000
   145  I          0.34085200       0.33813200       0.95256200
   146  I          0.65914800       0.33813200       0.54743800
   147  I          0.84085200       0.83813200       0.95256200
   148  I          0.15914800       0.83813200       0.54743800
   149  I          0.65914800       0.66186800       0.04743800
   150  I          0.34085200       0.66186800       0.45256200
   151  I          0.15914800       0.16186800       0.04743800
   152  I          0.84085200       0.16186800       0.45256200
   153  C          0.39063000       0.47192000       0.62882900
   154  C          0.60937000       0.47192000       0.87117100
   155  C          0.89063000       0.97192000       0.62882900
   156  C          0.10937000       0.97192000       0.87117100
   157  C          0.60937000       0.52808000       0.37117100
   158  C          0.39063000       0.52808000       0.12882900
   159  C          0.10937000       0.02808000       0.37117100
   160  C          0.89063000       0.02808000       0.12882900
   161  C          0.35324000       0.52982000       0.59210900
   162  C          0.64676000       0.52982000       0.90789100
   163  C          0.85324000       0.02982000       0.59210900
   164  C          0.14676000       0.02982000       0.90789100
   165  C          0.64676000       0.47018000       0.40789100
   166  C          0.35324000       0.47018000       0.09210900
   167  C          0.14676000       0.97018000       0.40789100
   168  C          0.85324000       0.97018000       0.09210900
   169  H          0.39250000       0.60280000       0.58870000
   170  H          0.60750000       0.60280000       0.91130000
   171  H          0.89250000       0.10280000       0.58870000
   172  H          0.10750000       0.10280000       0.91130000
   173  H          0.60750000       0.39720000       0.41130000
   174  H          0.39250000       0.39720000       0.08870000
   175  H          0.10750000       0.89720000       0.41130000
   176  H          0.89250000       0.89720000       0.08870000
   177  C          0.25874000       0.48143000       0.56027900
   178  C          0.74126000       0.48143000       0.93972100
   179  C          0.75874000       0.98143000       0.56027900
   180  C          0.24126000       0.98143000       0.93972100
   181  C          0.74126000       0.51857000       0.43972100
   182  C          0.25874000       0.51857000       0.06027900
   183  C          0.24126000       0.01857000       0.43972100
   184  C          0.75874000       0.01857000       0.06027900
   185  H          0.23250000       0.52030000       0.53500000
   186  H          0.76750000       0.52030000       0.96500000
   187  H          0.73250000       0.02030000       0.53500000
   188  H          0.26750000       0.02030000       0.96500000
   189  H          0.76750000       0.47970000       0.46500000
   190  H          0.23250000       0.47970000       0.03500000
   191  H          0.26750000       0.97970000       0.46500000
   192  H          0.73250000       0.97970000       0.03500000
   193  C          0.20433000       0.37573000       0.56633900
   194  C          0.79567000       0.37573000       0.93366100
   195  C          0.70433000       0.87573000       0.56633900
   196  C          0.29567000       0.87573000       0.93366100
   197  C          0.79567000       0.62427000       0.43366100
   198  C          0.20433000       0.62427000       0.06633900
   199  C          0.29567000       0.12427000       0.43366100
   200  C          0.70433000       0.12427000       0.06633900
   201  C          0.23604000       0.31662000       0.60309900
   202  C          0.76396000       0.31662000       0.89690100
   203  C          0.73604000       0.81662000       0.60309900
   204  C          0.26396000       0.81662000       0.89690100
   205  C          0.76396000       0.68338000       0.39690100
   206  C          0.23604000       0.68338000       0.10309900
   207  C          0.26396000       0.18338000       0.39690100
   208  C          0.73604000       0.18338000       0.10309900
   209  H          0.19380000       0.24450000       0.60660000
   210  H          0.80620000       0.24450000       0.89340000
   211  H          0.69380000       0.74450000       0.60660000
   212  H          0.30620000       0.74450000       0.89340000
   213  H          0.80620000       0.75550000       0.39340000
   214  H          0.19380000       0.75550000       0.10660000
   215  H          0.30620000       0.25550000       0.39340000
   216  H          0.69380000       0.25550000       0.10660000
   217  C          0.33083000       0.36612000       0.63434900
   218  C          0.66917000       0.36612000       0.86565100
   219  C          0.83083000       0.86612000       0.63434900
   220  C          0.16917000       0.86612000       0.86565100
   221  C          0.66917000       0.63388000       0.36565100
   222  C          0.33083000       0.63388000       0.13434900
   223  C          0.16917000       0.13388000       0.36565100
   224  C          0.83083000       0.13388000       0.13434900
   225  H          0.35510000       0.32750000       0.65980000
   226  H          0.64490000       0.32750000       0.84020000
   227  H          0.85510000       0.82750000       0.65980000
   228  H          0.14490000       0.82750000       0.84020000
   229  H          0.64490000       0.67250000       0.34020000
   230  H          0.35510000       0.67250000       0.15980000
   231  H          0.14490000       0.17250000       0.34020000
   232  H          0.85510000       0.17250000       0.15980000
   233  C          0.49463000       0.52562000       0.66229900
   234  C          0.50537000       0.52562000       0.83770100
   235  C         -0.00537000       0.02562000       0.66229900
   236  C          0.00537000       0.02562000       0.83770100
   237  C          0.50537000       0.47438000       0.33770100
   238  C          0.49463000       0.47438000       0.16229900
   239  C          0.00537000       0.97438000       0.33770100
   240  C         -0.00537000       0.97438000       0.16229900
   241  O          0.53073000       0.62317190       0.66041800
   242  O          0.46927000       0.62317190       0.83958200
   243  O          0.03073000       0.12317190       0.66041800
   244  O          0.96927000       0.12317190       0.83958200
   245  O          0.46927000       0.37682810       0.33958200
   246  O          0.53073000       0.37682810       0.16041800
   247  O          0.96927000       0.87682810       0.33958200
   248  O          0.03073000       0.87682810       0.16041800
   249  O          0.54163000       0.45899170       0.69266700
   250  O          0.45837000       0.45899170       0.80733300
   251  O          0.04163000       0.95899170       0.69266700
   252  O          0.95837000       0.95899170       0.80733300
   253  O          0.45837000       0.54100830       0.30733300
   254  O          0.54163000       0.54100830       0.19266700
   255  O          0.95837000       0.04100830       0.30733300
   256  O          0.04163000       0.04100830       0.19266700
   257  H          0.60580000       0.49230000       0.70920000
   258  H          0.39420000       0.49230000       0.79080000
   259  H          0.10580000      -0.00770000       0.70920000
   260  H          0.89420000      -0.00770000       0.79080000
   261  H          0.39420000       0.50770000       0.29080000
   262  H          0.60580000       0.50770000       0.20920000
   263  H          0.89420000       0.00770000       0.29080000
   264  H          0.10580000       0.00770000       0.20920000
   265  N          0.10873000       0.31962000       0.53114700
   266  N          0.89127000       0.31962000       0.96885300
   267  N          0.60873000       0.81962000       0.53114700
   268  N          0.39127000       0.81962000       0.96885300
   269  N          0.89127000       0.68038000       0.46885300
   270  N          0.10873000       0.68038000       0.03114700
   271  N          0.39127000       0.18038000       0.46885300
   272  N          0.60873000       0.18038000       0.03114700
   273  O          0.07074000       0.37483000       0.50123900
   274  O          0.92926000       0.37483000      -0.00123900
   275  O          0.57074000       0.87483000       0.50123900
   276  O          0.42926000       0.87483000      -0.00123900
   277  O          0.92926000       0.62517000       0.49876100
   278  O          0.07074000       0.62517000       0.00123900
   279  O          0.42926000       0.12517000       0.49876100
   280  O          0.57074000       0.12517000       0.00123900
   281  O          0.06973000       0.22492000       0.53681900
   282  O          0.93027000       0.22492000       0.96318100
   283  O          0.56973000       0.72492000       0.53681900
   284  O          0.43027000       0.72492000       0.96318100
   285  O          0.93027000       0.77508000       0.46318100
   286  O          0.06973000       0.77508000       0.03681900
   287  O          0.43027000       0.27508000       0.46318100
   288  O          0.56973000       0.27508000       0.03681900
