data_SUHQOF
_symmetry_space_group_name_H-M    'P1'
_symmetry_Int_Tables_number       1
loop_
_symmetry_equiv_pos_site_id
_symmetry_equiv_pos_as_xyz
1 x,y,z
_cell_length_a                   4.821556
_cell_length_b                   31.68504
_cell_length_c                   10.7256315
_cell_angle_alpha                90.0
_cell_angle_beta                 99.889013
_cell_angle_gamma                90.0
loop_
_atom_site_label
_atom_site_type_symbol
_atom_site_fract_x
_atom_site_fract_y
_atom_site_fract_z
     1  C          0.29194000       0.83525600       0.23172180
     2  C          0.70806000       0.33525600       0.26827820
     3  C          0.70806000       0.16474400       0.76827820
     4  C          0.29194000       0.66474400       0.73172180
     5  C          0.47365000       0.85296700       0.15712000
     6  C          0.52635000       0.35296700       0.34288000
     7  C          0.52635000       0.14703300       0.84288000
     8  C          0.47365000       0.64703300       0.65712000
     9  H          0.49850000       0.83940000       0.08080000
    10  H          0.50150000       0.33940000       0.41920000
    11  H          0.50150000       0.16060000       0.91920000
    12  H          0.49850000       0.66060000       0.58080000
    13  C          0.61745000       0.89005700       0.19382000
    14  C          0.38255000       0.39005700       0.30618000
    15  C          0.38255000       0.10994300       0.80618000
    16  C          0.61745000       0.60994300       0.69382000
    17  H          0.73780000       0.90220000       0.14210000
    18  H          0.26220000       0.40220000       0.35790000
    19  H          0.26220000       0.09780000       0.85790000
    20  H          0.73780000       0.59780000       0.64210000
    21  C          0.58425000       0.90935700       0.30642000
    22  C          0.41575000       0.40935700       0.19358000
    23  C          0.41575000       0.09064300       0.69358000
    24  C          0.58425000       0.59064300       0.80642000
    25  C          0.41225000       0.89138700       0.38362000
    26  C          0.58775000       0.39138700       0.11638000
    27  C          0.58775000       0.10861300       0.61638000
    28  C          0.41225000       0.60861300       0.88362000
    29  H          0.39540000       0.90420000       0.46200000
    30  H          0.60460000       0.40420000       0.03800000
    31  H          0.60460000       0.09580000       0.53800000
    32  H          0.39540000       0.59580000       0.96200000
    33  C          0.26604000       0.85483700       0.34538190
    34  C          0.73396000       0.35483700       0.15461810
    35  C          0.73396000       0.14516300       0.65461810
    36  C          0.26604000       0.64516300       0.84538190
    37  H          0.14580000       0.84290000       0.39750000
    38  H          0.85420000       0.34290000       0.10250000
    39  H          0.85420000       0.15710000       0.60250000
    40  H          0.14580000       0.65710000       0.89750000
    41  C          0.12714000       0.79743600       0.19128170
    42  C          0.87286000       0.29743600       0.30871830
    43  C          0.87286000       0.20256400       0.80871830
    44  C          0.12714000       0.70256400       0.69128170
    45  N          0.96564000       0.77840500       0.25906150
    46  N          0.03436000       0.27840500       0.24093850
    47  N          0.03436000       0.22159500       0.74093850
    48  N          0.96564000       0.72159500       0.75906150
    49  N          0.81794000       0.74504500       0.19781150
    50  N          0.18206000       0.24504500       0.30218850
    51  N          0.18206000       0.25495500       0.80218850
    52  N          0.81794000       0.75495500       0.69781150
    53  C          0.87024000       0.73963600       0.08209180
    54  C          0.12976000       0.23963600       0.41790820
    55  C          0.12976000       0.26036400       0.91790820
    56  C          0.87024000       0.76036400       0.58209180
    57  S          0.11374100       0.77514200       0.04134400
    58  S          0.88625900       0.27514200       0.45865600
    59  S          0.88625900       0.22485800       0.95865600
    60  S          0.11374100       0.72485800       0.54134400
    61  N          0.75104000       0.70997600       0.00259170
    62  N          0.24896000       0.20997600       0.49740830
    63  N          0.24896000       0.29002400      -0.00259170
    64  N          0.75104000       0.79002400       0.50259170
    65  H          0.78860000       0.70929000       0.92770000
    66  H          0.21140000       0.20929000       0.57230000
    67  H          0.21140000       0.29071000       0.07230000
    68  H          0.78860000       0.79071000       0.42770000
    69  H          0.62560000       0.69449000       0.02630000
    70  H          0.37440000       0.19449000       0.47370000
    71  H          0.37440000       0.30551000       0.97370000
    72  H          0.62560000       0.80551000       0.52630000
    73  I          0.79023400       0.96611200       0.36347200
    74  I          0.20976600       0.46611200       0.13652800
    75  I          0.20976600       0.03388800       0.63652800
    76  I          0.79023400       0.53388800       0.86347200
    77  C          0.05174000       0.54864700       0.39492000
    78  C          0.94826000       0.04864700       0.10508000
    79  C          0.94826000       0.45135300       0.60508000
    80  C          0.05174000       0.95135300       0.89492000
    81  H          0.12180000       0.56890000       0.46330000
    82  H          0.87820000       0.06890000       0.03670000
    83  H          0.87820000       0.43110000       0.53670000
    84  H          0.12180000       0.93110000       0.96330000
    85  H          0.21690000       0.53720000       0.36270000
    86  H          0.78310000       0.03720000       0.13730000
    87  H          0.78310000       0.46280000       0.63730000
    88  H          0.21690000       0.96280000       0.86270000
    89  C          0.90275000       0.51251700       0.45032000
    90  C          0.09725000       0.01251700       0.04968000
    91  C          0.09725000       0.48748300       0.54968000
    92  C          0.90275000       0.98748300       0.95032000
    93  H          0.74650000       0.52410000       0.48870000
    94  H          0.25350000       0.02410000       0.01130000
    95  H          0.25350000       0.47590000       0.51130000
    96  H          0.74650000       0.97590000      -0.01130000
    97  H          0.82040000       0.49330000       0.38110000
    98  H          0.17960000       0.99330000       0.11890000
    99  H          0.17960000       0.50670000       0.61890000
   100  H          0.82040000       0.00670000       0.88110000
   101  C          0.86515000       0.57214700       0.28802000
   102  C          0.13485000       0.07214700       0.21198000
   103  C          0.13485000       0.42785300       0.71198000
   104  C          0.86515000       0.92785300       0.78802000
   105  H          0.71920000       0.58790000       0.32340000
   106  H          0.28080000       0.08790000       0.17660000
   107  H          0.28080000       0.41210000       0.67660000
   108  H          0.71920000       0.91210000       0.82340000
   109  H          0.76820000       0.55130000       0.22670000
   110  H          0.23180000       0.05130000       0.27330000
   111  H          0.23180000       0.44870000       0.77330000
   112  H          0.76820000       0.94870000       0.72670000
   113  C          0.02815000       0.60301700       0.21812000
   114  C         -0.02815000       0.10301700       0.28188000
   115  C         -0.02815000       0.39698300       0.78188000
   116  C          0.02815000       0.89698300       0.71812000
   117  H          0.17760000       0.58740000       0.18470000
   118  H          0.82240000       0.08740000       0.31530000
   119  H          0.82240000       0.41260000       0.81530000
   120  H          0.17760000       0.91260000       0.68470000
   121  H          0.89850000       0.61500000       0.14510000
   122  H          0.10150000       0.11500000       0.35490000
   123  H          0.10150000       0.38500000       0.85490000
   124  H          0.89850000       0.88500000       0.64510000
   125  C          0.16105000       0.63871600       0.30192000
   126  C          0.83895000       0.13871600       0.19808000
   127  C          0.83895000       0.36128400       0.69808000
   128  C          0.16105000       0.86128400       0.80192000
   129  H          0.00950000       0.65600000       0.32760000
   130  H         -0.00950000       0.15600000       0.17240000
   131  H         -0.00950000       0.34400000       0.67240000
   132  H          0.00950000       0.84400000       0.82760000
   133  H          0.27300000       0.62650000       0.37950000
   134  H          0.72700000       0.12650000       0.12050000
   135  H          0.72700000       0.37350000       0.62050000
   136  H          0.27300000       0.87350000       0.87950000
   137  C          0.34784000       0.66688600       0.24005180
   138  C          0.65216000       0.16688600       0.25994820
   139  C          0.65216000       0.33311400       0.75994820
   140  C          0.34784000       0.83311400       0.74005180
   141  O          0.47614000       0.69618500       0.31572150
   142  O          0.52386000       0.19618500       0.18427850
   143  O          0.52386000       0.30381500       0.68427850
   144  O          0.47614000       0.80381500       0.81572150
   145  H          0.58080000       0.70971100       0.28130000
   146  H          0.41920000       0.20971100       0.21870000
   147  H          0.41920000       0.29028900       0.71870000
   148  H          0.58080000       0.79028900       0.78130000
   149  O          0.38054000       0.66263600       0.13173140
   150  O          0.61946000       0.16263600       0.36826860
   151  O          0.61946000       0.33736400       0.86826860
   152  O          0.38054000       0.83736400       0.63173140
