data_SULLOA
_symmetry_space_group_name_H-M    'P1'
_symmetry_Int_Tables_number       1
loop_
_symmetry_equiv_pos_site_id
_symmetry_equiv_pos_as_xyz
1 x,y,z
_cell_length_a                   10.0402
_cell_length_b                   10.3453
_cell_length_c                   11.3573
_cell_angle_alpha                72.41
_cell_angle_beta                 71.21
_cell_angle_gamma                78.91
loop_
_atom_site_label
_atom_site_type_symbol
_atom_site_fract_x
_atom_site_fract_y
_atom_site_fract_z
     1  Cl         0.45834500       0.48079500       0.24968500
     2  Cl         0.54165500       0.51920500       0.75031500
     3  Cl         0.45470600       0.28411500       0.11820400
     4  Cl         0.54529400       0.71588500       0.88179600
     5  O          0.45312000       0.12071000       0.37381000
     6  O          0.54688000       0.87929000       0.62619000
     7  O          0.32182000       0.26791000       0.48141000
     8  O          0.67818000       0.73209000       0.51859000
     9  O          0.15621000       0.26931000       0.28521000
    10  O          0.84379000       0.73069000       0.71479000
    11  O          0.13722000       0.65471000       0.29861000
    12  O          0.86278000       0.34529000       0.70139000
    13  O          0.03122000       0.91899000       0.31252000
    14  O          0.96878000       0.08101000       0.68748000
    15  C          0.38812000       0.22922000       0.37712000
    16  C          0.61188000       0.77078000       0.62288000
    17  C          0.37112000       0.34262000       0.25751000
    18  C          0.62888000       0.65738000       0.74249000
    19  C          0.21292000       0.39161000       0.27181000
    20  C          0.78708000       0.60839000       0.72819000
    21  C          0.18062000       0.50792000       0.16431000
    22  C          0.81938000       0.49208000       0.83569000
    23  C          0.14512000       0.63932000       0.18231000
    24  C          0.85488000       0.36068000       0.81769000
    25  C          0.11682000       0.74772000       0.08302000
    26  C          0.88318000       0.25228000       0.91698000
    27  C          0.12162000       0.72582000       0.96868000
    28  C          0.87838000       0.27418000       0.03132000
    29  C          0.15372000       0.59692000       0.95068000
    30  C          0.84628000       0.40308000       0.04932000
    31  C          0.18212000       0.48832000       0.04812000
    32  C          0.81788000       0.51168000       0.95188000
    33  C          0.01522000       0.25961000       0.34221000
    34  C          0.98478000       0.74039000       0.65779000
    35  C          0.96798000       0.13652000       0.35241000
    36  C          0.03202000       0.86348000       0.64759000
    37  C          0.82408000       0.11992000       0.40722000
    38  C          0.17592000       0.88008000       0.59278000
    39  C          0.73068000       0.22162000       0.45192000
    40  C          0.26932000       0.77838000       0.54808000
    41  C          0.77898000       0.34092000       0.44362000
    42  C          0.22102000       0.65908000       0.55638000
    43  C          0.91988000       0.36192000       0.38872000
    44  C          0.08012000       0.63808000       0.61128000
    45  C          0.06702000       0.02542000       0.30962000
    46  C          0.93298000       0.97458000       0.69038000
    47  H          0.34030000       0.22220000       0.54020000
    48  H          0.65970000       0.77780000       0.45980000
    49  H          0.17320000       0.41920000       0.35220000
    50  H          0.82680000       0.58080000       0.64780000
    51  H          0.12020000       0.73120000       0.29520000
    52  H          0.87980000       0.26880000       0.70480000
    53  H          0.08820000       0.83620000       0.10220000
    54  H          0.91180000       0.16380000       0.89780000
    55  H          0.10330000       0.80730000       0.90280000
    56  H          0.89670000       0.19270000       0.09720000
    57  H          0.15420000       0.57420000       0.87180000
    58  H          0.84580000       0.42580000       0.12820000
    59  H          0.20820000       0.40420000       0.03720000
    60  H          0.79180000       0.59580000       0.96280000
    61  H          0.79180000       0.04120000       0.42220000
    62  H          0.20820000       0.95880000       0.57780000
    63  H          0.64270000       0.20520000       0.49320000
    64  H          0.35730000       0.79480000       0.50680000
    65  H          0.70670000       0.41620000       0.48420000
    66  H          0.29330000       0.58380000       0.51580000
    67  H          0.94780000       0.44120000       0.38420000
    68  H          0.05220000       0.55880000       0.61580000
    69  H          0.16220000       0.03720000       0.28020000
    70  H          0.83780000       0.96280000       0.71980000
    71  O          0.37702000       0.10841000       0.68219000
    72  O          0.62298000       0.89159000       0.31781000
    73  C          0.36302000       0.15062000       0.79518000
    74  C          0.63698000       0.84938000       0.20482000
    75  C          0.29594000       0.29612000       0.76968000
    76  C          0.70406000       0.70388000       0.23032000
    77  C          0.51043000       0.14013000       0.81018000
    78  C          0.48957000       0.85987000       0.18982000
    79  C          0.27344000       0.06003000       0.91247000
    80  C          0.72656000       0.93997000       0.08753000
    81  H          0.41420000       0.03920000       0.68780000
    82  H          0.58580000       0.96080000       0.31220000
    83  H          0.27330000       0.32430000       0.84080000
    84  H          0.72670000       0.67570000       0.15920000
    85  H          0.35920000       0.34720000       0.69380000
    86  H          0.64080000       0.65280000       0.30620000
    87  H          0.20230000       0.28620000       0.76180000
    88  H          0.79770000       0.71380000       0.23820000
    89  H          0.55920000       0.04420000       0.81280000
    90  H          0.44080000       0.95580000       0.18720000
    91  H          0.48940000       0.16140000       0.88370000
    92  H          0.51060000       0.83860000       0.11630000
    93  H          0.57630000       0.20030000       0.72880000
    94  H          0.42370000       0.79970000       0.27120000
    95  H          0.31130000       0.96880000       0.93380000
    96  H          0.68870000       0.03120000       0.06620000
    97  H          0.19120000       0.05920000       0.87580000
    98  H          0.80880000       0.94080000       0.12420000
    99  H          0.24030000       0.07930000       0.00630000
   100  H          0.75970000       0.92070000      -0.00630000
