data_SUPBUA
_symmetry_space_group_name_H-M    'P1'
_symmetry_Int_Tables_number       1
loop_
_symmetry_equiv_pos_site_id
_symmetry_equiv_pos_as_xyz
1 x,y,z
_cell_length_a                   8.8795
_cell_length_b                   20.1468
_cell_length_c                   12.7106
_cell_angle_alpha                90.0
_cell_angle_beta                 107.894
_cell_angle_gamma                90.0
loop_
_atom_site_label
_atom_site_type_symbol
_atom_site_fract_x
_atom_site_fract_y
_atom_site_fract_z
     1  N          0.21096000       0.13983000       0.87396000
     2  N          0.78904000       0.63983000       0.12604000
     3  H          0.29836800       0.11933000       0.86635700
     4  H          0.70163200       0.61933000       0.13364300
     5  H          0.25667000       0.17313300       0.90825000
     6  H          0.74333000       0.67313300       0.09175000
     7  H          0.15386700       0.11163100       0.90995300
     8  H          0.84613300       0.61163100       0.09004700
     9  C          0.10976000       0.15663000       0.76016000
    10  C          0.89024000       0.65663000       0.23984000
    11  H          0.00956000       0.17653000       0.76116000
    12  H         -0.00956000       0.67653000       0.23884000
    13  C          0.08135000       0.09182000       0.69376000
    14  C          0.91865000       0.59182000       0.30624000
    15  O          0.18944000       0.05172000       0.71077000
    16  O          0.81056000       0.55172000       0.28923000
    17  C          0.20597000       0.20543000       0.71205000
    18  C          0.79403000       0.70543000       0.28795000
    19  H          0.21407000       0.24753000       0.75065000
    20  H          0.78593000       0.74753000       0.24935000
    21  H          0.31237000       0.18813000       0.72655000
    22  H          0.68763000       0.68813000       0.27345000
    23  C          0.13636000       0.21803000       0.58846000
    24  C          0.86364000       0.71803000       0.41154000
    25  C          0.18446000       0.17833000       0.51496000
    26  C          0.81554000       0.67833000       0.48504000
    27  H          0.25726000       0.14443000       0.54196000
    28  H          0.74274000       0.64443000       0.45804000
    29  C          0.12446000       0.18893000       0.40186000
    30  C          0.87554000       0.68893000       0.59814000
    31  H          0.15676000       0.16223000       0.35306000
    32  H          0.84324000       0.66223000       0.64694000
    33  C          0.01616000       0.23933000       0.36236000
    34  C         -0.01616000       0.73933000       0.63764000
    35  C          0.96703000       0.27863000       0.43416000
    36  C          0.03297000       0.77863000       0.56584000
    37  H          0.89283000       0.31203000       0.40716000
    38  H          0.10717000       0.81203000       0.59284000
    39  C          0.02947000       0.26813000       0.54706000
    40  C          0.97053000       0.76813000       0.45294000
    41  H         -0.00187000       0.29543000       0.59566000
    42  H          0.00187000       0.79543000       0.40434000
    43  O          0.95265000       0.25202000       0.25147000
    44  O          0.04735000       0.75202000       0.74853000
    45  H          0.00338200       0.22903800       0.22234100
    46  H         -0.00338200       0.72903800       0.77765900
    47  N          0.93985000       0.08022000       0.61747000
    48  N          0.06015000       0.58022000       0.38253000
    49  C          0.80535000       0.12582000       0.58866000
    50  C          0.19465000       0.62582000       0.41134000
    51  H          0.84635000       0.17002000       0.61466000
    52  H          0.15365000       0.67002000       0.38534000
    53  C          0.67714000       0.10942000       0.64236000
    54  C          0.32286000       0.60942000       0.35764000
    55  O          0.56386000       0.14712000       0.62667000
    56  O          0.43614000       0.64712000       0.37333000
    57  C          0.73023000       0.13023000       0.46336000
    58  C          0.26977000       0.63023000       0.53664000
    59  H          0.63833000       0.15913000       0.44616000
    60  H          0.36167000       0.65913000       0.55384000
    61  H          0.80553000       0.14913000       0.43026000
    62  H          0.19447000       0.64913000       0.56974000
    63  C          0.68164000       0.06253000       0.41646000
    64  C          0.31836000       0.56253000       0.58354000
    65  C          0.77854000       0.00923000       0.46046000
    66  C          0.22146000       0.50923000       0.53954000
    67  C          0.93323000       0.01943000       0.54955000
    68  C          0.06677000       0.51943000       0.45045000
    69  H          0.95363000       0.98107000       0.59815000
    70  H          0.04637000       0.48107000       0.40185000
    71  H          0.01727000       0.02163000       0.51565000
    72  H         -0.01727000       0.52163000       0.48435000
    73  C          0.50241000       0.98736000       0.29034000
    74  C          0.49759000       0.48736000       0.70966000
    75  H          0.40921000       0.98036000       0.23304000
    76  H          0.59079000       0.48036000       0.76696000
    77  C          0.59851000       0.93476000       0.33424000
    78  C          0.40149000       0.43476000       0.66576000
    79  H          0.57131000       0.89226000       0.30634000
    80  H          0.42869000       0.39226000       0.69366000
    81  C          0.73542000       0.94487000       0.41965000
    82  C          0.26458000       0.44487000       0.58035000
    83  H          0.79972000       0.90897000       0.45055000
    84  H          0.20028000       0.40897000       0.54945000
    85  N          0.69486000       0.05512000       0.70567000
    86  N          0.30514000       0.55512000       0.29433000
    87  H          0.77376000       0.02902000       0.71147000
    88  H          0.22624000       0.52902000       0.28853000
    89  C          0.58314000       0.03933000       0.76486000
    90  C          0.41686000       0.53933000       0.23514000
    91  H          0.47764000       0.05333000       0.71916000
    92  H          0.52236000       0.55333000       0.28084000
    93  C          0.62274000       0.07653000       0.87596000
    94  C          0.37726000       0.57653000       0.12404000
    95  O          0.51975000       0.10493000       0.90537000
    96  O          0.48025000       0.60493000       0.09463000
    97  C          0.57783000       0.96457000       0.78575000
    98  C          0.42217000       0.46457000       0.21425000
    99  H          0.68273000       0.95007000       0.82905000
   100  H          0.31727000       0.45007000       0.17095000
   101  H          0.50723000       0.95667000       0.82955000
   102  H          0.49277000       0.45667000       0.17045000
   103  C          0.52363000       0.92287000       0.68215000
   104  C          0.47637000       0.42287000       0.31785000
   105  C          0.61371000       0.87097000       0.66484000
   106  C          0.38629000       0.37097000       0.33516000
   107  H          0.71291000       0.86307000       0.71524000
   108  H          0.28709000       0.36307000       0.28476000
   109  C          0.55828800       0.82976000       0.57242000
   110  C          0.44171200       0.32976000       0.42758000
   111  H          0.62038800       0.79456000       0.56232000
   112  H          0.37961200       0.29456000       0.43768000
   113  C          0.41568800       0.84056000       0.49793000
   114  C          0.58431200       0.34056000       0.50207000
   115  H          0.37978800       0.81336000       0.43623000
   116  H          0.62021200       0.31336000       0.56377000
   117  C          0.32281000       0.89246000       0.51374000
   118  C          0.67719000       0.39246000       0.48626000
   119  H          0.22371000       0.89986000       0.46294000
   120  H          0.77629000       0.39986000       0.53706000
   121  C          0.37723000       0.93347000       0.60475000
   122  C          0.62277000       0.43347000       0.39525000
   123  H          0.31463000       0.96857000       0.61415000
   124  H          0.68537000       0.46857000       0.38585000
   125  N          0.77095000       0.07342000       0.94027000
   126  N          0.22905000       0.57342000       0.05973000
   127  H          0.83625000       0.04932000       0.91927000
   128  H          0.16375000       0.54932000       0.08073000
   129  C          0.82974000       0.10863000       0.04474000
   130  C          0.17026000       0.60863000       0.95526000
   131  H          0.77744000       0.15203000       0.03564000
   132  H          0.22256000       0.65203000       0.96436000
   133  C          0.00346000       0.12053000       0.07024000
   134  C         -0.00346000       0.62053000       0.92976000
   135  O          0.08154000       0.08472000       0.02463000
   136  O          0.91846000       0.58472000       0.97537000
   137  C          0.79073000       0.07213000       0.14105000
   138  C          0.20927000       0.57213000       0.85895000
   139  H          0.84063000       0.09543000       0.20975000
   140  H          0.15937000       0.59543000       0.79025000
   141  H          0.67723000       0.07303000       0.12815000
   142  H          0.32277000       0.57303000       0.87185000
   143  C          0.84693000       0.00083000       0.15215000
   144  C          0.15307000       0.50083000       0.84785000
   145  C          0.74429000       0.95107000       0.09916000
   146  C          0.25571000       0.45107000       0.90084000
   147  H          0.64019000       0.96187000       0.06036000
   148  H          0.35981000       0.46187000       0.93964000
   149  C          0.79338600       0.88556000       0.10288000
   150  C          0.20661400       0.38556000       0.89712000
   151  H          0.72288600       0.85296000       0.06568000
   152  H          0.27711400       0.35296000       0.93432000
   153  C          0.94028500       0.86945000       0.15929000
   154  C          0.05971500       0.36945000       0.84071000
   155  H          0.97138500       0.82525000       0.16079000
   156  H          0.02861500       0.32525000       0.83921000
   157  C          0.04731200       0.91525000       0.21497000
   158  C          0.95268800       0.41525000       0.78503000
   159  H          0.15011200       0.90295000       0.25417000
   160  H          0.84988800       0.40295000       0.74583000
   161  C         -0.00219000       0.98336000       0.21186000
   162  C          0.00219000       0.48336000       0.78814000
   163  H          0.06849000       0.01564000       0.25046000
   164  H          0.93151000       0.51564000       0.74954000
   165  O          0.06435000       0.16582000       0.13733000
   166  O          0.93565000       0.66582000       0.86267000
   167  C          0.54273000       0.05114000       0.33065000
   168  C          0.45727000       0.55114000       0.66935000
   169  H          0.47643000       0.08644000       0.30015000
   170  H          0.52357000       0.58644000       0.69985000
   171  C          0.57609000       0.25455000       0.18747000
   172  C          0.42391000       0.75455000       0.81253000
   173  H          0.60539000       0.24245000       0.26417000
   174  H          0.39461000       0.74245000       0.73583000
   175  H          0.57849000       0.30195000       0.18097000
   176  H          0.42151000       0.80195000       0.81903000
   177  H          0.64919000       0.23505000       0.15437000
   178  H          0.35081000       0.73505000       0.84563000
   179  C          0.41628000       0.23033000       0.13106000
   180  C          0.58372000       0.73033000       0.86894000
   181  O          0.34766000       0.23792000       0.03464000
   182  O          0.65234000       0.73792000       0.96536000
   183  O          0.35595000       0.19923000       0.19844000
   184  O          0.64405000       0.69923000       0.80156000
   185  H          0.24758400       0.18393800       0.16805500
   186  H          0.75241600       0.68393800       0.83194500
   187  C          0.70898800       0.30035000       0.92102000
   188  C          0.29101200       0.80035000       0.07898000
   189  H          0.60948800       0.32315000       0.90342000
   190  H          0.39051200       0.82315000       0.09658000
   191  H          0.79278800       0.33205000       0.93002000
   192  H          0.20721200       0.83205000       0.06998000
   193  H          0.72578800       0.27585000       0.98842000
   194  H          0.27421200       0.77585000       0.01158000
   195  C          0.70749000       0.25423000       0.83084000
   196  C          0.29251000       0.75423000       0.16916000
   197  O          0.57334000       0.25402000       0.75025000
   198  O          0.42666000       0.75402000       0.24975000
   199  H          0.56570900       0.22224300       0.69403500
   200  H          0.43429100       0.72224300       0.30596500
   201  O          0.81644000       0.21953000       0.83105000
   202  O          0.18356000       0.71953000       0.16895000
   203  C          0.15851000       0.90297000       0.82084000
   204  C          0.84149000       0.40297000       0.17916000
   205  H          0.25771000       0.88797000       0.87024000
   206  H          0.74229000       0.38797000       0.12976000
   207  H          0.17501000       0.92117000       0.75544000
   208  H          0.82499000       0.42117000       0.24456000
   209  H          0.08631000       0.86637000       0.80094000
   210  H          0.91369000       0.36637000       0.19906000
   211  C          0.09157000       0.95467000       0.87615000
   212  C          0.90843000       0.45467000       0.12385000
   213  O          0.18446000       0.96797000       0.97726000
   214  O          0.81554000       0.46797000       0.02274000
   215  H          0.15210000      -0.00434500       0.00017000
   216  H          0.84790000       0.49565500      -0.00017000
   217  O          0.96805000       0.98288000       0.83477000
   218  O          0.03195000       0.48288000       0.16523000
