data_SUPWAD
_symmetry_space_group_name_H-M    'P1'
_symmetry_Int_Tables_number       1
loop_
_symmetry_equiv_pos_site_id
_symmetry_equiv_pos_as_xyz
1 x,y,z
_cell_length_a                   8.89501
_cell_length_b                   17.6762
_cell_length_c                   4.43605
_cell_angle_alpha                90.0
_cell_angle_beta                 90.0
_cell_angle_gamma                90.0
loop_
_atom_site_label
_atom_site_type_symbol
_atom_site_fract_x
_atom_site_fract_y
_atom_site_fract_z
     1  C          0.92866150       0.93964700       0.20903000
     2  C          0.07133850       0.06035300       0.20903000
     3  C          0.57133850       0.43964700       0.79097000
     4  C          0.42866150       0.56035300       0.79097000
     5  H          0.85290000       0.96290000       0.34360000
     6  H          0.14710000       0.03710000       0.34360000
     7  H          0.64710000       0.46290000       0.65640000
     8  H          0.35290000       0.53710000       0.65640000
     9  H          0.00640000       0.91560000       0.33670000
    10  H         -0.00640000       0.08440000       0.33670000
    11  H          0.49360000       0.41560000       0.66330000
    12  H          0.50640000       0.58440000       0.66330000
    13  C          0.85420160       0.88021700       0.01703000
    14  C          0.14579840       0.11978300       0.01703000
    15  C          0.64579840       0.38021700      -0.01703000
    16  C          0.35420160       0.61978300      -0.01703000
    17  C          0.93696160       0.81886800       0.90964000
    18  C          0.06303840       0.18113200       0.90964000
    19  C          0.56303840       0.31886800       0.09036000
    20  C          0.43696160       0.68113200       0.09036000
    21  H          0.04120000       0.81460000       0.95250000
    22  H          0.95880000       0.18540000       0.95250000
    23  H          0.45880000       0.31460000       0.04750000
    24  H          0.54120000       0.68540000       0.04750000
    25  C          0.86432170       0.76416800       0.73914000
    26  C          0.13567830       0.23583200       0.73914000
    27  C          0.63567830       0.26416800       0.26086000
    28  C          0.36432170       0.73583200       0.26086000
    29  H          0.91740000       0.72100000       0.66830000
    30  H          0.08260000       0.27900000       0.66830000
    31  H          0.58260000       0.22100000       0.33170000
    32  H          0.41740000       0.77900000       0.33170000
    33  C          0.71328170       0.77338800       0.67364000
    34  C          0.28671830       0.22661200       0.67364000
    35  C          0.78671830       0.27338800       0.32636000
    36  C          0.21328170       0.72661200       0.32636000
    37  H          0.66150000       0.73750000       0.55260000
    38  H          0.33850000       0.26250000       0.55260000
    39  H          0.83850000       0.23750000       0.44740000
    40  H          0.16150000       0.76250000       0.44740000
    41  C          0.63891160       0.83632800       0.78884000
    42  C          0.36108840       0.16367200       0.78884000
    43  C          0.86108840       0.33632800       0.21116000
    44  C          0.13891160       0.66367200       0.21116000
    45  H          0.53510000       0.84240000       0.74420000
    46  H          0.46490000       0.15760000       0.74420000
    47  H          0.96490000       0.34240000       0.25580000
    48  H          0.03510000       0.65760000       0.25580000
    49  N          0.00000000      -0.00000000       0.01884000
    50  N          0.50000000       0.50000000      -0.01884000
    51  H          0.07110000       0.97870000       0.89820000
    52  H          0.92890000       0.02130000       0.89820000
    53  H          0.42890000       0.47870000       0.10180000
    54  H          0.57110000       0.52130000       0.10180000
    55  N          0.70678140       0.88881700       0.95973000
    56  N          0.29321860       0.11118300       0.95973000
    57  N          0.79321860       0.38881700       0.04027000
    58  N          0.20678140       0.61118300       0.04027000
    59  Cl         0.73444400       0.08251200       0.69586800
    60  Cl         0.26555600       0.91748800       0.69586800
    61  Cl         0.76555600       0.58251200       0.30413200
    62  Cl         0.23444400       0.41748800       0.30413200
    63  N          0.50000000      -0.00000000       0.24524000
    64  N          0.00000000       0.50000000       0.75476000
    65  H          0.55820000       0.96961100       0.13150000
    66  H          0.44180000       0.03038900       0.13150000
    67  H          0.94180000       0.46961100       0.86850000
    68  H          0.05820000       0.53038900       0.86850000
    69  H          0.56320000       0.02951100       0.36350000
    70  H          0.43680000       0.97048900       0.36350000
    71  H          0.93680000       0.52951100       0.63650000
    72  H          0.06320000       0.47048900       0.63650000
