data_SUTRUX
_symmetry_space_group_name_H-M    'P1'
_symmetry_Int_Tables_number       1
loop_
_symmetry_equiv_pos_site_id
_symmetry_equiv_pos_as_xyz
1 x,y,z
_cell_length_a                   3.69582
_cell_length_b                   22.99738
_cell_length_c                   13.13476
_cell_angle_alpha                90.0
_cell_angle_beta                 93.1694
_cell_angle_gamma                90.0
loop_
_atom_site_label
_atom_site_type_symbol
_atom_site_fract_x
_atom_site_fract_y
_atom_site_fract_z
     1  O          0.77294000       0.40474600       0.92364100
     2  O          0.22706000       0.90474600       0.57635900
     3  O          0.22706000       0.59525400       0.07635900
     4  O          0.77294000       0.09525400       0.42364100
     5  N          0.94335000       0.37403700       0.76994150
     6  N          0.05665000       0.87403700       0.73005850
     7  N          0.05665000       0.62596300       0.23005850
     8  N          0.94335000       0.12596300       0.26994150
     9  C          0.56635000       0.47398800       0.68047150
    10  C          0.43365000       0.97398800       0.81952850
    11  C          0.43365000       0.52601200       0.31952850
    12  C          0.56635000       0.02601200       0.18047150
    13  H          0.59930000       0.44310000       0.63610000
    14  H          0.40070000       0.94310000       0.86390000
    15  H          0.40070000       0.55690000       0.36390000
    16  H          0.59930000       0.05690000       0.13610000
    17  N          0.36845000       0.57174700       0.70438130
    18  N          0.63155000       0.07174700       0.79561870
    19  N          0.63155000       0.42825300       0.29561870
    20  N          0.36845000       0.92825300       0.20438130
    21  C          0.66235000       0.46857800       0.78339150
    22  C          0.33765000       0.96857800       0.71660850
    23  C          0.33765000       0.53142200       0.21660850
    24  C          0.66235000       0.03142200       0.28339150
    25  C          0.46686000       0.56657900       0.80331170
    26  C          0.53314000       0.06657900       0.69668830
    27  C          0.53314000       0.43342100       0.19668830
    28  C          0.46686000       0.93342100       0.30331170
    29  H          0.43640000       0.59850000       0.84550000
    30  H          0.56360000       0.09850000       0.65450000
    31  H          0.56360000       0.40150000       0.15450000
    32  H          0.43640000       0.90150000       0.34550000
    33  C          0.42105000       0.52579900       0.64474160
    34  C          0.57895000       0.02579900       0.85525840
    35  C          0.57895000       0.47420100       0.35525840
    36  C          0.42105000       0.97420100       0.14474160
    37  H          0.35630000       0.52890000       0.57550000
    38  H          0.64370000       0.02890000       0.92450000
    39  H          0.64370000       0.47110000       0.42450000
    40  H          0.35630000       0.97110000       0.07550000
    41  C          0.80075000       0.41282800       0.83143150
    42  C          0.19925000       0.91282800       0.66856850
    43  C          0.19925000       0.58717200       0.16856850
    44  C          0.80075000       0.08717200       0.33143150
    45  C          0.61116000       0.51636800       0.84633160
    46  C          0.38884000       0.01636800       0.65366840
    47  C          0.38884000       0.48363200       0.15366840
    48  C          0.61116000       0.98363200       0.34633160
    49  H          0.67300000       0.51440000       0.91590000
    50  H          0.32700000       0.01440000       0.58410000
    51  H          0.32700000       0.48560000       0.08410000
    52  H          0.67300000       0.98560000       0.41590000
    53  H         -0.03830000       0.38031000       0.70120000
    54  H          0.03830000       0.88031000       0.79880000
    55  H          0.03830000       0.61969000       0.29880000
    56  H         -0.03830000       0.11969000       0.20120000
    57  H          0.03570000       0.34251200       0.79911900
    58  H         -0.03570000       0.84251200       0.70088100
    59  H         -0.03570000       0.65748800       0.20088100
    60  H          0.03570000       0.15748800       0.29911900
    61  N          0.51965000       0.30190700       0.00979120
    62  N          0.48035000       0.80190700       0.49020880
    63  N          0.48035000       0.69809300      -0.00979120
    64  N          0.51965000       0.19809300       0.50979120
    65  O          0.05094000       0.11828600       0.04621100
    66  O          0.94906000       0.61828600       0.45378900
    67  O          0.94906000       0.88171400       0.95378900
    68  O          0.05094000       0.38171400       0.54621100
    69  N          0.23584000       0.25868700       0.85831120
    70  N          0.76416000       0.75868700       0.64168880
    71  N          0.76416000       0.74131300       0.14168880
    72  N          0.23584000       0.24131300       0.35831120
    73  N          0.01884000       0.16400700       0.89185120
    74  N         -0.01884000       0.66400700       0.60814880
    75  N         -0.01884000       0.83599300       0.10814880
    76  N          0.01884000       0.33599300       0.39185120
    77  C          0.34725000       0.25843800       0.95942140
    78  C          0.65275000       0.75843800       0.54057860
    79  C          0.65275000       0.74156200       0.04057860
    80  C          0.34725000       0.24156200       0.45942140
    81  N          0.59425000       0.28815700       0.10983120
    82  N          0.40575000       0.78815700       0.39016880
    83  N          0.40575000       0.71184300       0.89016880
    84  N          0.59425000       0.21184300       0.60983120
    85  C          0.30465000       0.21358800       0.02895140
    86  C          0.69535000       0.71358800       0.47104860
    87  C          0.69535000       0.78641200       0.97104860
    88  C          0.30465000       0.28641200       0.52895140
    89  C          0.12135000       0.16172800      -0.00474850
    90  C          0.87865000       0.66172800       0.50474850
    91  C          0.87865000       0.83827200       0.00474850
    92  C          0.12135000       0.33827200       0.49525150
    93  C          0.07765000       0.21009800       0.83037150
    94  C          0.92235000       0.71009800       0.66962850
    95  C          0.92235000       0.78990200       0.16962850
    96  C          0.07765000       0.28990200       0.33037150
    97  H         -0.00210000       0.20670000       0.76220000
    98  H          0.00210000       0.70670000       0.73780000
    99  H          0.00210000       0.79330000       0.23780000
   100  H         -0.00210000       0.29330000       0.26220000
   101  C          0.46505000       0.23488800       0.12123140
   102  C          0.53495000       0.73488800       0.37876860
   103  C          0.53495000       0.76511200       0.87876860
   104  C          0.46505000       0.26511200       0.62123140
   105  H          0.47870000       0.21430000       0.18220000
   106  H          0.52130000       0.71430000       0.31780000
   107  H          0.52130000       0.78570000       0.81780000
   108  H          0.47870000       0.28570000       0.68220000
   109  H          0.60560000       0.33431100       0.98611800
   110  H          0.39440000       0.83431100       0.51388200
   111  H          0.39440000       0.66568900       0.01388200
   112  H          0.60560000       0.16568900       0.48611800
   113  H          0.89030000       0.13111200       0.86151900
   114  H          0.10970000       0.63111200       0.63848100
   115  H          0.10970000       0.86888800       0.13848100
   116  H          0.89030000       0.36888800       0.36151900
