data_SUTVIO
_symmetry_space_group_name_H-M    'P1'
_symmetry_Int_Tables_number       1
loop_
_symmetry_equiv_pos_site_id
_symmetry_equiv_pos_as_xyz
1 x,y,z
_cell_length_a                   7.48145
_cell_length_b                   6.00334
_cell_length_c                   27.936318
_cell_angle_alpha                90.0
_cell_angle_beta                 97.00648
_cell_angle_gamma                90.0
loop_
_atom_site_label
_atom_site_type_symbol
_atom_site_fract_x
_atom_site_fract_y
_atom_site_fract_z
     1  Br         0.08589600       0.00163900       0.39399200
     2  Br         0.91410400       0.50163900       0.60600800
     3  O          0.39113000       0.20424000       0.62864800
     4  O          0.60887000       0.70424000       0.37135200
     5  O          0.43704000       0.54635000       0.59979900
     6  O          0.56296000       0.04635000       0.40020100
     7  C          0.71275000       0.60056000       0.78827140
     8  C          0.28725000       0.10056000       0.21172860
     9  H          0.67530000       0.49110000       0.76460000
    10  H          0.32470000      -0.00890000       0.23540000
    11  C          0.69175000       0.55936000       0.83497140
    12  C          0.30825000       0.05936000       0.16502860
    13  H          0.64010000       0.42230000       0.84340000
    14  H          0.35990000       0.92230000       0.15660000
    15  C          0.74605000       0.71836000       0.87151130
    16  C          0.25395000       0.21836000       0.12848870
    17  C          0.73105000       0.67927000       0.92092130
    18  C          0.26895000       0.17927000       0.07907870
    19  H          0.68180000       0.54250000       0.93040000
    20  H          0.31820000       0.04250000       0.06960000
    21  C          0.78635000       0.83547000       0.95507140
    22  C          0.21365000       0.33547000       0.04492860
    23  H          0.77470000       0.80720000       0.98800000
    24  H          0.22530000       0.30720000       0.01200000
    25  C          0.86095000       0.03927000       0.94156130
    26  C          0.13905000       0.53927000       0.05843870
    27  H          0.89920000       0.14730000       0.96550000
    28  H          0.10080000       0.64730000       0.03450000
    29  C          0.87805000       0.08116000       0.89391140
    30  C          0.12195000       0.58116000       0.10608860
    31  H          0.92960000       0.21770000       0.88530000
    32  H          0.07040000       0.71770000       0.11470000
    33  C          0.81975000       0.92386000       0.85757130
    34  C          0.18025000       0.42386000       0.14242870
    35  C          0.84005000       0.96036000       0.80815120
    36  C          0.15995000       0.46036000       0.19184880
    37  H          0.88980000       0.09690000       0.79890000
    38  H          0.11020000       0.59690000       0.20110000
    39  C          0.78905000       0.80246000       0.77365130
    40  C          0.21095000       0.30246000       0.22634870
    41  C          0.80885000       0.82697000       0.72126130
    42  C          0.19115000       0.32697000       0.27873870
    43  H          0.86010000       0.69210000       0.70690000
    44  H          0.13990000       0.19210000       0.29310000
    45  C          0.85535000       0.03927000       0.69839130
    46  C          0.14465000       0.53927000       0.30160870
    47  H          0.93660000       0.03140000       0.67300000
    48  H          0.06340000       0.53140000       0.32700000
    49  H          0.87060000       0.17340000       0.71910000
    50  H          0.12940000       0.67340000       0.28090000
    51  C          0.66835000       0.94796000       0.68662120
    52  C          0.33165000       0.44796000       0.31337880
    53  H          0.64120000       0.87920000       0.65390000
    54  H          0.35880000       0.37920000       0.34610000
    55  C          0.51385000       0.06646000       0.70512120
    56  C          0.48615000       0.56646000       0.29487880
    57  H          0.54860000       0.10560000       0.73940000
    58  H          0.45140000       0.60560000       0.26060000
    59  H          0.40980000       0.96360000       0.70350000
    60  H          0.59020000       0.46360000       0.29650000
    61  C          0.45585000       0.27756000       0.67723130
    62  C          0.54415000       0.77756000       0.32276870
    63  H          0.56170000       0.37850000       0.67650000
    64  H          0.43830000       0.87850000       0.32350000
    65  C          0.30675000       0.39957000       0.69852150
    66  C          0.69325000       0.89957000       0.30147850
    67  H          0.34940000       0.44440000       0.73170000
    68  H          0.65060000       0.94440000       0.26830000
    69  H          0.20230000       0.30100000       0.69850000
    70  H          0.79770000       0.80100000       0.30150000
    71  H          0.27210000       0.53210000       0.67910000
    72  H          0.72790000       0.03210000       0.32090000
    73  C          0.38885000       0.35836000       0.59354140
    74  C          0.61115000       0.85836000       0.40645860
    75  C          0.31695000       0.26256000       0.54561130
    76  C          0.68305000       0.76256000       0.45438870
    77  C          0.33035000       0.39397000       0.50477130
    78  C          0.66965000       0.89397000       0.49522870
    79  H          0.38580000       0.53630000       0.50820000
    80  H          0.61420000       0.03630000       0.49180000
    81  C          0.26345000       0.31717000       0.45951130
    82  C          0.73655000       0.81717000       0.54048870
    83  H          0.27260000       0.40510000       0.43160000
    84  H          0.72740000       0.90510000       0.56840000
    85  C          0.18245000       0.10927000       0.45557120
    86  C          0.81755000       0.60927000       0.54442880
    87  C          0.16895000       0.97587000       0.49537120
    88  C          0.83105000       0.47587000       0.50462880
    89  H          0.11270000       0.83390000       0.49170000
    90  H          0.88730000       0.33390000       0.50830000
    91  C          0.23855000       0.05266000       0.54070120
    92  C          0.76145000       0.55266000       0.45929880
    93  H          0.23260000       0.96180000       0.56830000
    94  H          0.76740000       0.46180000       0.43170000
    95  C          0.22495000       0.67383000       0.90597150
    96  C          0.77505000       0.17383000       0.09402850
    97  C          0.30326000       0.86703000       0.92578150
    98  C          0.69674000       0.36703000       0.07421850
    99  C          0.36225000       0.02688000       0.89638140
   100  C          0.63775000       0.52688000       0.10361860
   101  C          0.34255000      -0.00248000       0.84701130
   102  C          0.65745000       0.49752000       0.15298870
   103  C          0.26505000       0.80493000       0.82714140
   104  C          0.73495000       0.30493000       0.17285860
   105  C          0.20755000       0.64433000       0.85671150
   106  C          0.79245000       0.14433000       0.14328850
   107  F          0.16473000       0.51875000       0.93417800
   108  F          0.83527000       0.01875000       0.06582200
   109  F          0.32164000       0.89635000       0.97321900
   110  F          0.67836000       0.39635000       0.02678100
   111  F          0.43744000       0.21484000       0.91511100
   112  F          0.56256000       0.71484000       0.08488900
   113  F          0.39863000       0.15364000       0.81815900
   114  F          0.60137000       0.65364000       0.18184100
   115  F          0.24523000       0.77646000       0.77956800
   116  F          0.75477000       0.27646000       0.22043200
   117  F          0.13053000       0.45686000       0.83743900
   118  F          0.86947000       0.95686000       0.16256100
