data_SUVJEY
_symmetry_space_group_name_H-M    'P1'
_symmetry_Int_Tables_number       1
loop_
_symmetry_equiv_pos_site_id
_symmetry_equiv_pos_as_xyz
1 x,y,z
_cell_length_a                   13.03233
_cell_length_b                   23.94431
_cell_length_c                   3.79271
_cell_angle_alpha                90.0
_cell_angle_beta                 90.0
_cell_angle_gamma                90.0
loop_
_atom_site_label
_atom_site_type_symbol
_atom_site_fract_x
_atom_site_fract_y
_atom_site_fract_z
     1  O          0.79037800       0.39949500       0.01074000
     2  O          0.70962200       0.60050500       0.51074000
     3  O          0.20962200       0.89949500      -0.01074000
     4  O          0.29037800       0.10050500       0.48926000
     5  O          0.20962200       0.60050500      -0.01074000
     6  O          0.29037800       0.39949500       0.48926000
     7  O          0.79037800       0.10050500       0.01074000
     8  O          0.70962200       0.89949500       0.51074000
     9  O          0.92701900       0.35764400       0.24254000
    10  O          0.57298100       0.64235600       0.74254000
    11  O          0.07298100       0.85764400       0.75746000
    12  O          0.42701900       0.14235600       0.25746000
    13  O          0.07298100       0.64235600       0.75746000
    14  O          0.42701900       0.35764400       0.25746000
    15  O          0.92701900       0.14235600       0.24254000
    16  O          0.57298100       0.85764400       0.74254000
    17  C          0.88676110       0.39825600       0.11184000
    18  C          0.61323890       0.60174400       0.61184000
    19  C          0.11323890       0.89825600       0.88816000
    20  C          0.38676110       0.10174400       0.38816000
    21  C          0.11323890       0.60174400       0.88816000
    22  C          0.38676110       0.39825600       0.38816000
    23  C          0.88676110       0.10174400       0.11184000
    24  C          0.61323890       0.89825600       0.61184000
    25  C          0.94398110       0.45135600       0.05234000
    26  C          0.55601890       0.54864400       0.55234000
    27  C          0.05601890       0.95135600       0.94766000
    28  C          0.44398110       0.04864400       0.44766000
    29  C          0.05601890       0.54864400       0.94766000
    30  C          0.44398110       0.45135600       0.44766000
    31  C          0.94398110       0.04864400       0.05234000
    32  C          0.55601890       0.95135600       0.55234000
    33  C          0.89653110       0.49862600       0.91366000
    34  C          0.60346890       0.50137400       0.41366000
    35  C          0.10346890      -0.00137400       0.08634000
    36  C          0.39653110       0.00137400       0.58634000
    37  C          0.10346890       0.50137400       0.08634000
    38  C          0.39653110       0.49862600       0.58634000
    39  C          0.89653110       0.00137400       0.91366000
    40  C          0.60346890      -0.00137400       0.41366000
    41  C          0.04779110       0.45312600       0.13784000
    42  C          0.45220890       0.54687400       0.63784000
    43  C          0.95220890       0.95312600       0.86216000
    44  C          0.54779110       0.04687400       0.36216000
    45  C          0.95220890       0.54687400       0.86216000
    46  C          0.54779110       0.45312600       0.36216000
    47  C          0.04779110       0.04687400       0.13784000
    48  C          0.45220890       0.95312600       0.63784000
    49  H          0.82461200       0.49677000       0.85665500
    50  H          0.67538800       0.50323000       0.35665500
    51  H          0.17538800      -0.00323000       0.14334500
    52  H          0.32461200       0.00323000       0.64334500
    53  H          0.17538800       0.50323000       0.14334500
    54  H          0.32461200       0.49677000       0.64334500
    55  H          0.82461200       0.00323000       0.85665500
    56  H          0.67538800      -0.00323000       0.35665500
    57  H          0.08031300       0.42007000       0.23624800
    58  H          0.41968700       0.57993000       0.73624800
    59  H          0.91968700       0.92007000       0.76375200
    60  H          0.58031300       0.07993000       0.26375200
    61  H          0.91968700       0.57993000       0.76375200
    62  H          0.58031300       0.42007000       0.26375200
    63  H          0.08031300       0.07993000       0.23624800
    64  H          0.41968700       0.92007000       0.73624800
    65  H          0.75761800       0.36201100       0.04016400
    66  H          0.74238200       0.63798900       0.54016400
    67  H          0.24238200       0.86201100       0.95983600
    68  H          0.25761800       0.13798900       0.45983600
    69  H          0.24238200       0.63798900       0.95983600
    70  H          0.25761800       0.36201100       0.45983600
    71  H          0.75761800       0.13798900       0.04016400
    72  H          0.74238200       0.86201100       0.54016400
    73  N          0.69648900       0.29998500       0.00883000
    74  N          0.80351100       0.70001500       0.50883000
    75  N          0.30351100       0.79998500      -0.00883000
    76  N          0.19648900       0.20001500       0.49117000
    77  N          0.30351100       0.70001500      -0.00883000
    78  N          0.19648900       0.29998500       0.49117000
    79  N          0.69648900       0.20001500       0.00883000
    80  N          0.80351100       0.79998500       0.50883000
    81  N          0.82564130       0.25000000       0.27755000
    82  N          0.67435870       0.75000000       0.77755000
    83  N          0.17435870       0.75000000       0.72245000
    84  N          0.32564130       0.25000000       0.22245000
    85  C          0.73824140       0.25000000       0.09385000
    86  C          0.76175860       0.75000000       0.59385000
    87  C          0.26175860       0.75000000       0.90615000
    88  C          0.23824140       0.25000000       0.40615000
    89  C          0.60664110       0.29883600       0.84036000
    90  C          0.89335890       0.70116400       0.34036000
    91  C          0.39335890       0.79883600       0.15964000
    92  C          0.10664110       0.20116400       0.65964000
    93  C          0.39335890       0.70116400       0.15964000
    94  C          0.10664110       0.29883600       0.65964000
    95  C          0.60664110       0.20116400       0.84036000
    96  C          0.89335890       0.79883600       0.34036000
    97  C          0.55702000       0.25000000       0.75434000
    98  C          0.94298000       0.75000000       0.25434000
    99  C          0.44298000       0.75000000       0.24566000
   100  C          0.05702000       0.25000000       0.74566000
   101  H          0.57931200       0.33607000       0.78075300
   102  H          0.92068800       0.66393000       0.28075300
   103  H          0.42068800       0.83607000       0.21924700
   104  H          0.07931200       0.16393000       0.71924700
   105  H          0.42068800       0.66393000       0.21924700
   106  H          0.07931200       0.33607000       0.71924700
   107  H          0.57931200       0.16393000       0.78075300
   108  H          0.92068800       0.83607000       0.28075300
   109  H          0.48871900       0.25000000       0.63293100
   110  H          0.01128100       0.75000000       0.13293100
   111  H          0.51128100       0.75000000       0.36706900
   112  H          0.98871900       0.25000000       0.86706900
   113  H          0.85801300       0.28257000       0.30464900
   114  H          0.64198700       0.71743000       0.80464900
   115  H          0.14198700       0.78257000       0.69535100
   116  H          0.35801300       0.21743000       0.19535100
   117  H          0.14198700       0.71743000       0.69535100
   118  H          0.35801300       0.28257000       0.19535100
   119  H          0.85801300       0.21743000       0.30464900
   120  H          0.64198700       0.78257000       0.80464900
