data_SUWLIH
_symmetry_space_group_name_H-M    'P1'
_symmetry_Int_Tables_number       1
loop_
_symmetry_equiv_pos_site_id
_symmetry_equiv_pos_as_xyz
1 x,y,z
_cell_length_a                   32.4852
_cell_length_b                   5.40794
_cell_length_c                   11.37648
_cell_angle_alpha                90.0
_cell_angle_beta                 91.04201
_cell_angle_gamma                90.0
loop_
_atom_site_label
_atom_site_type_symbol
_atom_site_fract_x
_atom_site_fract_y
_atom_site_fract_z
     1  I          0.35190540       0.21456200       0.16430610
     2  I          0.64809460       0.21456200       0.33569390
     3  I          0.85190540       0.71456200       0.16430610
     4  I          0.14809460       0.71456200       0.33569390
     5  I          0.64809460       0.78543800       0.83569390
     6  I          0.35190540       0.78543800       0.66430610
     7  I          0.14809460       0.28543800       0.83569390
     8  I          0.85190540       0.28543800       0.66430610
     9  C          0.39752600       0.94914000       0.19719160
    10  C          0.60247400       0.94914000       0.30280840
    11  C          0.89752600       0.44914000       0.19719160
    12  C          0.10247400       0.44914000       0.30280840
    13  C          0.60247400       0.05086000       0.80280840
    14  C          0.39752600       0.05086000       0.69719160
    15  C          0.10247400       0.55086000       0.80280840
    16  C          0.89752600       0.55086000       0.69719160
    17  C          0.39459600       0.78924000       0.29170170
    18  C          0.60540400       0.78924000       0.20829830
    19  C          0.89459600       0.28924000       0.29170170
    20  C          0.10540400       0.28924000       0.20829830
    21  C          0.60540400       0.21076000       0.70829830
    22  C          0.39459600       0.21076000       0.79170170
    23  C          0.10540400       0.71076000       0.70829830
    24  C          0.89459600       0.71076000       0.79170170
    25  C          0.42339600       0.60624000       0.31164170
    26  C          0.57660400       0.60624000       0.18835830
    27  C          0.92339600       0.10624000       0.31164170
    28  C          0.07660400       0.10624000       0.18835830
    29  C          0.57660400       0.39376000       0.68835830
    30  C          0.42339600       0.39376000       0.81164170
    31  C          0.07660400       0.89376000       0.68835830
    32  C          0.92339600       0.89376000       0.81164170
    33  C          0.45707600       0.57914000       0.23870170
    34  C          0.54292400       0.57914000       0.26129830
    35  C          0.95707600       0.07914000       0.23870170
    36  C          0.04292400       0.07914000       0.26129830
    37  C          0.54292400       0.42086000       0.76129830
    38  C          0.45707600       0.42086000       0.73870170
    39  C          0.04292400       0.92086000       0.76129830
    40  C          0.95707600       0.92086000       0.73870170
    41  C          0.46020600       0.74124000       0.14428170
    42  C          0.53979400       0.74124000       0.35571830
    43  C          0.96020600       0.24124000       0.14428170
    44  C          0.03979400       0.24124000       0.35571830
    45  C          0.53979400       0.25876000       0.85571830
    46  C          0.46020600       0.25876000       0.64428170
    47  C          0.03979400       0.75876000       0.85571830
    48  C          0.96020600       0.75876000       0.64428170
    49  C          0.43092600       0.92134000       0.12431160
    50  C          0.56907400       0.92134000       0.37568840
    51  C          0.93092600       0.42134000       0.12431160
    52  C          0.06907400       0.42134000       0.37568840
    53  C          0.56907400       0.07866000       0.87568840
    54  C          0.43092600       0.07866000       0.62431160
    55  C          0.06907400       0.57866000       0.87568840
    56  C          0.93092600       0.57866000       0.62431160
    57  F          0.36234400       0.80402000       0.36379100
    58  F          0.63765600       0.80402000       0.13620900
    59  F          0.86234400       0.30402000       0.36379100
    60  F          0.13765600       0.30402000       0.13620900
    61  F          0.63765600       0.19598000       0.63620900
    62  F          0.36234400       0.19598000       0.86379100
    63  F          0.13765600       0.69598000       0.63620900
    64  F          0.86234400       0.69598000       0.86379100
    65  F          0.41867400       0.44862000       0.40146100
    66  F          0.58132600       0.44862000       0.09853900
    67  F          0.91867400       0.94862000       0.40146100
    68  F          0.08132600       0.94862000       0.09853900
    69  F          0.58132600       0.55138000       0.59853900
    70  F          0.41867400       0.55138000       0.90146100
    71  F          0.08132600       0.05138000       0.59853900
    72  F          0.91867400       0.05138000       0.90146100
    73  F          0.49116400       0.71642000       0.06860100
    74  F          0.50883600       0.71642000       0.43139900
    75  F          0.99116400       0.21642000       0.06860100
    76  F          0.00883600       0.21642000       0.43139900
    77  F          0.50883600       0.28358000       0.93139900
    78  F          0.49116400       0.28358000       0.56860100
    79  F          0.00883600       0.78358000       0.93139900
    80  F          0.99116400       0.78358000       0.56860100
    81  F          0.43546300       0.07282000       0.03196100
    82  F          0.56453700       0.07282000       0.46803900
    83  F          0.93546300       0.57282000       0.03196100
    84  F          0.06453700       0.57282000       0.46803900
    85  F          0.56453700       0.92718000       0.96803900
    86  F          0.43546300       0.92718000       0.53196100
    87  F          0.06453700       0.42718000       0.96803900
    88  F          0.93546300       0.42718000       0.53196100
    89  N          0.48070500       0.35493000       0.24967150
    90  N          0.51929500       0.35493000       0.25032850
    91  N          0.98070500       0.85493000       0.24967150
    92  N          0.01929500       0.85493000       0.25032850
    93  N          0.51929500       0.64507000       0.75032850
    94  N          0.48070500       0.64507000       0.74967150
    95  N          0.01929500       0.14507000       0.75032850
    96  N          0.98070500       0.14507000       0.74967150
    97  C          0.77230600       0.44494000       0.91806180
    98  C          0.22769400       0.44494000       0.58193820
    99  C          0.27230600       0.94494000       0.91806180
   100  C          0.72769400       0.94494000       0.58193820
   101  C          0.22769400       0.55506000       0.08193820
   102  C          0.77230600       0.55506000       0.41806180
   103  C          0.72769400       0.05506000       0.08193820
   104  C          0.27230600       0.05506000       0.41806180
   105  H          0.78510000       0.50360000       0.84480000
   106  H          0.21490000       0.50360000       0.65520000
   107  H          0.28510000       0.00360000       0.84480000
   108  H          0.71490000       0.00360000       0.65520000
   109  H          0.21490000       0.49640000       0.15520000
   110  H          0.78510000       0.49640000       0.34480000
   111  H          0.71490000      -0.00360000       0.15520000
   112  H          0.28510000      -0.00360000       0.34480000
   113  H          0.77320000       0.58250000       0.97550000
   114  H          0.22680000       0.58250000       0.52450000
   115  H          0.27320000       0.08250000       0.97550000
   116  H          0.72680000       0.08250000       0.52450000
   117  H          0.22680000       0.41750000       0.02450000
   118  H          0.77320000       0.41750000       0.47550000
   119  H          0.72680000       0.91750000       0.02450000
   120  H          0.27320000       0.91750000       0.47550000
   121  C          0.70298600       0.27144000       0.03298180
   122  C          0.29701400       0.27144000       0.46701820
   123  C          0.20298600       0.77144000       0.03298180
   124  C          0.79701400       0.77144000       0.46701820
   125  C          0.29701400       0.72856000       0.96701820
   126  C          0.70298600       0.72856000       0.53298180
   127  C          0.79701400       0.22856000       0.96701820
   128  C          0.20298600       0.22856000       0.53298180
   129  H          0.70610000       0.41420000       0.08690000
   130  H          0.29390000       0.41420000       0.41310000
   131  H          0.20610000       0.91420000       0.08690000
   132  H          0.79390000       0.91420000       0.41310000
   133  H          0.29390000       0.58580000       0.91310000
   134  H          0.70610000       0.58580000       0.58690000
   135  H          0.79390000       0.08580000       0.91310000
   136  H          0.20610000       0.08580000       0.58690000
   137  H          0.67350000       0.22560000       0.02960000
   138  H          0.32650000       0.22560000       0.47040000
   139  H          0.17350000       0.72560000       0.02960000
   140  H          0.82650000       0.72560000       0.47040000
   141  H          0.32650000       0.77440000       0.97040000
   142  H          0.67350000       0.77440000       0.52960000
   143  H          0.82650000       0.27440000       0.97040000
   144  H          0.17350000       0.27440000       0.52960000
   145  S          0.71902815       0.36267100       0.88704400
   146  S          0.28097185       0.36267100       0.61295600
   147  S          0.21902815       0.86267100       0.88704400
   148  S          0.78097185       0.86267100       0.61295600
   149  S          0.28097185       0.63732900       0.11295600
   150  S          0.71902815       0.63732900       0.38704400
   151  S          0.78097185       0.13732900       0.11295600
   152  S          0.21902815       0.13732900       0.38704400
