data_SUWLAZ
_symmetry_space_group_name_H-M    'P1'
_symmetry_Int_Tables_number       1
loop_
_symmetry_equiv_pos_site_id
_symmetry_equiv_pos_as_xyz
1 x,y,z
_cell_length_a                   28.3004
_cell_length_b                   5.41577
_cell_length_c                   17.8412
_cell_angle_alpha                90.0
_cell_angle_beta                 96.2872
_cell_angle_gamma                90.0
loop_
_atom_site_label
_atom_site_type_symbol
_atom_site_fract_x
_atom_site_fract_y
_atom_site_fract_z
     1  I          0.39909200       0.21790300       0.96134200
     2  I          0.60090800       0.21790300       0.53865800
     3  I          0.89909200       0.71790300       0.96134200
     4  I          0.10090800       0.71790300       0.53865800
     5  I          0.60090800       0.78209700       0.03865800
     6  I          0.39909200       0.78209700       0.46134200
     7  I          0.10090800       0.28209700       0.03865800
     8  I          0.89909200       0.28209700       0.46134200
     9  F          0.50758500       0.35233000       0.93226800
    10  F          0.49241500       0.35233000       0.56773200
    11  F          0.00758500       0.85233000       0.93226800
    12  F          0.99241500       0.85233000       0.56773200
    13  F          0.49241500       0.64767000       0.06773200
    14  F          0.50758500       0.64767000       0.43226800
    15  F          0.99241500       0.14767000       0.06773200
    16  F          0.00758500       0.14767000       0.43226800
    17  F          0.54375500       0.70943000       0.85148800
    18  F          0.45624500       0.70943000       0.64851200
    19  F          0.04375500       0.20943000       0.85148800
    20  F          0.95624500       0.20943000       0.64851200
    21  F          0.45624500       0.29057000       0.14851200
    22  F          0.54375500       0.29057000       0.35148800
    23  F          0.95624500       0.79057000       0.14851200
    24  F          0.04375500       0.79057000       0.35148800
    25  F          0.35185500       0.60863000       0.84063900
    26  F          0.64814500       0.60863000       0.65936100
    27  F          0.85185500       0.10863000       0.84063900
    28  F          0.14814500       0.10863000       0.65936100
    29  F          0.64814500       0.39137000       0.15936100
    30  F          0.35185500       0.39137000       0.34063900
    31  F          0.14814500       0.89137000       0.15936100
    32  F          0.85185500       0.89137000       0.34063900
    33  F          0.38830600       0.96683000       0.76052900
    34  F          0.61169400       0.96683000       0.73947100
    35  F          0.88830600       0.46683000       0.76052900
    36  F          0.11169400       0.46683000       0.73947100
    37  F          0.61169400       0.03317000       0.23947100
    38  F          0.38830600       0.03317000       0.26052900
    39  F          0.11169400       0.53317000       0.23947100
    40  F          0.88830600       0.53317000       0.26052900
    41  N          0.48388800       0.06794000       0.77107120
    42  N          0.51611200       0.06794000       0.72892880
    43  N          0.98388800       0.56794000       0.77107120
    44  N          0.01611200       0.56794000       0.72892880
    45  N          0.51611200       0.93206000       0.22892880
    46  N          0.48388800       0.93206000       0.27107120
    47  N          0.01611200       0.43206000       0.22892880
    48  N          0.98388800       0.43206000       0.27107120
    49  C          0.42880900       0.47254000       0.88971130
    50  C          0.57119100       0.47254000       0.61028870
    51  C          0.92880900       0.97254000       0.88971130
    52  C          0.07119100       0.97254000       0.61028870
    53  C          0.57119100       0.52746000       0.11028870
    54  C          0.42880900       0.52746000       0.38971130
    55  C          0.07119100       0.02746000       0.11028870
    56  C          0.92880900       0.02746000       0.38971130
    57  C          0.47732900       0.50264000       0.89010130
    58  C          0.52267100       0.50264000       0.60989870
    59  C          0.97732900       0.00264000       0.89010130
    60  C          0.02267100       0.00264000       0.60989870
    61  C          0.52267100       0.49736000       0.10989870
    62  C          0.47732900       0.49736000       0.39010130
    63  C          0.02267100      -0.00264000       0.10989870
    64  C          0.97732900      -0.00264000       0.39010130
    65  C          0.49613900       0.68294000       0.84724130
    66  C          0.50386100       0.68294000       0.65275870
    67  C         -0.00386100       0.18294000       0.84724130
    68  C          0.00386100       0.18294000       0.65275870
    69  C          0.50386100       0.31706000       0.15275870
    70  C          0.49613900       0.31706000       0.34724130
    71  C          0.00386100       0.81706000       0.15275870
    72  C         -0.00386100       0.81706000       0.34724130
    73  C          0.46695900       0.84464000       0.80301130
    74  C          0.53304100       0.84464000       0.69698870
    75  C          0.96695900       0.34464000       0.80301130
    76  C          0.03304100       0.34464000       0.69698870
    77  C          0.53304100       0.15536000       0.19698870
    78  C          0.46695900       0.15536000       0.30301130
    79  C          0.03304100       0.65536000       0.19698870
    80  C          0.96695900       0.65536000       0.30301130
    81  C          0.39975900       0.62935000       0.84388140
    82  C          0.60024100       0.62935000       0.65611860
    83  C          0.89975900       0.12935000       0.84388140
    84  C          0.10024100       0.12935000       0.65611860
    85  C          0.60024100       0.37065000       0.15611860
    86  C          0.39975900       0.37065000       0.34388140
    87  C          0.10024100       0.87065000       0.15611860
    88  C          0.89975900       0.87065000       0.34388140
    89  C          0.41807900       0.81325000       0.80224140
    90  C          0.58192100       0.81325000       0.69775860
    91  C          0.91807900       0.31325000       0.80224140
    92  C          0.08192100       0.31325000       0.69775860
    93  C          0.58192100       0.18675000       0.19775860
    94  C          0.41807900       0.18675000       0.30224140
    95  C          0.08192100       0.68675000       0.19775860
    96  C          0.91807900       0.68675000       0.30224140
    97  N          0.14710800       0.58154000       0.94319130
    98  N          0.85289200       0.58154000       0.55680870
    99  N          0.64710800       0.08154000       0.94319130
   100  N          0.35289200       0.08154000       0.55680870
   101  N          0.85289200       0.41846000       0.05680870
   102  N          0.14710800       0.41846000       0.44319130
   103  N          0.35289200       0.91846000       0.05680870
   104  N          0.64710800       0.91846000       0.44319130
   105  C          0.12733100       0.77045000       0.90297170
   106  C          0.87266900       0.77045000       0.59702830
   107  C          0.62733100       0.27045000       0.90297170
   108  C          0.37266900       0.27045000       0.59702830
   109  C          0.87266900       0.22955000       0.09702830
   110  C          0.12733100       0.22955000       0.40297170
   111  C          0.37266900       0.72955000       0.09702830
   112  C          0.62733100       0.72955000       0.40297170
   113  H          0.09400000       0.79370000       0.90140000
   114  H          0.90600000       0.79370000       0.59860000
   115  H          0.59400000       0.29370000       0.90140000
   116  H          0.40600000       0.29370000       0.59860000
   117  H          0.90600000       0.20630000       0.09860000
   118  H          0.09400000       0.20630000       0.40140000
   119  H          0.40600000       0.70630000       0.09860000
   120  H          0.59400000       0.70630000       0.40140000
   121  C          0.15295100       0.93375000       0.86354150
   122  C          0.84704900       0.93375000       0.63645850
   123  C          0.65295100       0.43375000       0.86354150
   124  C          0.34704900       0.43375000       0.63645850
   125  C          0.84704900       0.06625000       0.13645850
   126  C          0.15295100       0.06625000       0.36354150
   127  C          0.34704900       0.56625000       0.13645850
   128  C          0.65295100       0.56625000       0.36354150
   129  H          0.13720000       0.06600000       0.83630000
   130  H          0.86280000       0.06600000       0.66370000
   131  H          0.63720000       0.56600000       0.83630000
   132  H          0.36280000       0.56600000       0.66370000
   133  H          0.86280000       0.93400000       0.16370000
   134  H          0.13720000       0.93400000       0.33630000
   135  H          0.36280000       0.43400000       0.16370000
   136  H          0.63720000       0.43400000       0.33630000
   137  C          0.20170900       0.90455000       0.86373140
   138  C          0.79829100       0.90455000       0.63626860
   139  C          0.70170900       0.40455000       0.86373140
   140  C          0.29829100       0.40455000       0.63626860
   141  C          0.79829100       0.09545000       0.13626860
   142  C          0.20170900       0.09545000       0.36373140
   143  C          0.29829100       0.59545000       0.13626860
   144  C          0.70170900       0.59545000       0.36373140
   145  C          0.22955100       0.08195000       0.82341150
   146  C          0.77044900       0.08195000       0.67658850
   147  C          0.72955100       0.58195000       0.82341150
   148  C          0.27044900       0.58195000       0.67658850
   149  C          0.77044900       0.91805000       0.17658850
   150  C          0.22955100       0.91805000       0.32341150
   151  C          0.27044900       0.41805000       0.17658850
   152  C          0.72955100       0.41805000       0.32341150
   153  H          0.21210000       0.20010000       0.79230000
   154  H          0.78790000       0.20010000       0.70770000
   155  H          0.71210000       0.70010000       0.79230000
   156  H          0.28790000       0.70010000       0.70770000
   157  H          0.78790000       0.79990000       0.20770000
   158  H          0.21210000       0.79990000       0.29230000
   159  H          0.28790000       0.29990000       0.20770000
   160  H          0.71210000       0.29990000       0.29230000
   161  C          0.27583110       0.09205000       0.82643170
   162  C          0.72416890       0.09205000       0.67356830
   163  C          0.77583110       0.59205000       0.82643170
   164  C          0.22416890       0.59205000       0.67356830
   165  C          0.72416890       0.90795000       0.17356830
   166  C          0.27583110       0.90795000       0.32643170
   167  C          0.22416890       0.40795000       0.17356830
   168  C          0.77583110       0.40795000       0.32643170
   169  H          0.29490000      -0.02220000       0.85680000
   170  H          0.70510000      -0.02220000       0.64320000
   171  H          0.79490000       0.47780000       0.85680000
   172  H          0.20510000       0.47780000       0.64320000
   173  H          0.70510000       0.02220000       0.14320000
   174  H          0.29490000       0.02220000       0.35680000
   175  H          0.20510000       0.52220000       0.14320000
   176  H          0.79490000       0.52220000       0.35680000
   177  H          0.29050000       0.21350000       0.79830000
   178  H          0.70950000       0.21350000       0.70170000
   179  H          0.79050000       0.71350000       0.79830000
   180  H          0.20950000       0.71350000       0.70170000
   181  H          0.70950000       0.78650000       0.20170000
   182  H          0.29050000       0.78650000       0.29830000
   183  H          0.20950000       0.28650000       0.20170000
   184  H          0.79050000       0.28650000       0.29830000
   185  C          0.19396110       0.55065000       0.94287170
   186  C          0.80603890       0.55065000       0.55712830
   187  C          0.69396110       0.05065000       0.94287170
   188  C          0.30603890       0.05065000       0.55712830
   189  C          0.80603890       0.44935000       0.05712830
   190  C          0.19396110       0.44935000       0.44287170
   191  C          0.30603890       0.94935000       0.05712830
   192  C          0.69396110       0.94935000       0.44287170
   193  H          0.20860000       0.41580000       0.97040000
   194  H          0.79140000       0.41580000       0.52960000
   195  H          0.70860000       0.91580000       0.97040000
   196  H          0.29140000       0.91580000       0.52960000
   197  H          0.79140000       0.58420000       0.02960000
   198  H          0.20860000       0.58420000       0.47040000
   199  H          0.29140000       0.08420000       0.02960000
   200  H          0.70860000       0.08420000       0.47040000
   201  C          0.22231100       0.70375000       0.90471170
   202  C          0.77768900       0.70375000       0.59528830
   203  C          0.72231100       0.20375000       0.90471170
   204  C          0.27768900       0.20375000       0.59528830
   205  C          0.77768900       0.29625000       0.09528830
   206  C          0.22231100       0.29625000       0.40471170
   207  C          0.27768900       0.79625000       0.09528830
   208  C          0.72231100       0.79625000       0.40471170
   209  H          0.25550000       0.67290000       0.90630000
   210  H          0.74450000       0.67290000       0.59370000
   211  H          0.75550000       0.17290000       0.90630000
   212  H          0.24450000       0.17290000       0.59370000
   213  H          0.74450000       0.32710000       0.09370000
   214  H          0.25550000       0.32710000       0.40630000
   215  H          0.24450000       0.82710000       0.09370000
   216  H          0.75550000       0.82710000       0.40630000
