data_SUWLED
_symmetry_space_group_name_H-M    'P1'
_symmetry_Int_Tables_number       1
loop_
_symmetry_equiv_pos_site_id
_symmetry_equiv_pos_as_xyz
1 x,y,z
_cell_length_a                   20.3904
_cell_length_b                   6.331113
_cell_length_c                   17.6544
_cell_angle_alpha                90.0
_cell_angle_beta                 108.9992
_cell_angle_gamma                90.0
loop_
_atom_site_label
_atom_site_type_symbol
_atom_site_fract_x
_atom_site_fract_y
_atom_site_fract_z
     1  C          0.74363000       0.49587000       0.50063000
     2  C          0.25637000       0.49587000      -0.00063000
     3  C          0.25637000       0.50413000       0.49937000
     4  C          0.74363000       0.50413000       0.00063000
     5  H          0.71170000       0.59800000       0.46430000
     6  H          0.28830000       0.59800000       0.03570000
     7  H          0.28830000       0.40200000       0.53570000
     8  H          0.71170000       0.40200000       0.96430000
     9  H          0.77800000       0.57670000       0.54350000
    10  H          0.22200000       0.57670000       0.95650000
    11  H          0.22200000       0.42330000       0.45650000
    12  H          0.77800000       0.42330000       0.04350000
    13  C          0.70182000       0.34987000       0.53853000
    14  C          0.29818000       0.34987000       0.96147000
    15  C          0.29818000       0.65013000       0.46147000
    16  C          0.70182000       0.65013000       0.03853000
    17  H          0.71700000       0.37180000       0.59720000
    18  H          0.28300000       0.37180000       0.90280000
    19  H          0.28300000       0.62820000       0.40280000
    20  H          0.71700000       0.62820000       0.09720000
    21  H          0.65180000       0.38480000       0.51640000
    22  H          0.34820000       0.38480000       0.98360000
    23  H          0.34820000       0.61520000       0.48360000
    24  H          0.65180000       0.61520000       0.01640000
    25  C          0.68872000       0.09887000       0.43342000
    26  C          0.31128000       0.09887000       0.06658000
    27  C          0.31128000       0.90113000       0.56658000
    28  C          0.68872000       0.90113000       0.93342000
    29  H          0.63810000       0.12500000       0.41150000
    30  H          0.36190000       0.12500000       0.08850000
    31  H          0.36190000       0.87500000       0.58850000
    32  H          0.63810000       0.87500000       0.91150000
    33  H          0.69750000       0.95120000       0.42080000
    34  H          0.30250000       0.95120000       0.07920000
    35  H          0.30250000       0.04880000       0.57920000
    36  H          0.69750000       0.04880000       0.92080000
    37  C          0.72733000       0.25218000       0.39453000
    38  C          0.27267000       0.25218000       0.10547000
    39  C          0.27267000       0.74782000       0.60547000
    40  C          0.72733000       0.74782000       0.89453000
    41  H          0.75000000       0.17070000       0.36200000
    42  H          0.25000000       0.17070000       0.13800000
    43  H          0.25000000       0.82930000       0.63800000
    44  H          0.75000000       0.82930000       0.86200000
    45  H          0.69350000       0.34990000       0.35820000
    46  H          0.30650000       0.34990000       0.14180000
    47  H          0.30650000       0.65010000       0.64180000
    48  H          0.69350000       0.65010000       0.85820000
    49  C          0.82722000       0.22738000       0.51073000
    50  C          0.17278000       0.22738000       0.98927000
    51  C          0.17278000       0.77262000       0.48927000
    52  C          0.82722000       0.77262000       0.01073000
    53  H          0.86310000       0.30800000       0.55200000
    54  H          0.13690000       0.30800000       0.94800000
    55  H          0.13690000       0.69200000       0.44800000
    56  H          0.86310000       0.69200000       0.05200000
    57  H          0.85080000       0.13960000       0.48100000
    58  H          0.14920000       0.13960000       0.01900000
    59  H          0.14920000       0.86040000       0.51900000
    60  H          0.85080000       0.86040000       0.98100000
    61  C          0.78782000       0.08317000       0.55173000
    62  C          0.21218000       0.08317000       0.94827000
    63  C          0.21218000       0.91683000       0.44827000
    64  C          0.78782000       0.91683000       0.05173000
    65  H          0.79590000       0.93330000       0.54120000
    66  H          0.20410000       0.93330000       0.95880000
    67  H          0.20410000       0.06670000       0.45880000
    68  H          0.79590000       0.06670000       0.04120000
    69  H          0.80540000       0.10610000       0.61030000
    70  H          0.19460000       0.10610000       0.88970000
    71  H          0.19460000       0.89390000       0.38970000
    72  H          0.80540000       0.89390000       0.11030000
    73  N          0.71267170       0.12915000       0.52087190
    74  N          0.28732830       0.12915000       0.97912810
    75  N          0.28732830       0.87085000       0.47912810
    76  N          0.71267170       0.87085000       0.02087190
    77  N          0.77972180       0.37415000       0.45552000
    78  N          0.22027820       0.37415000       0.04448000
    79  N          0.22027820       0.62585000       0.54448000
    80  N          0.77972180       0.62585000       0.95552000
    81  C          0.59642000       0.37696000       0.14032000
    82  C          0.40358000       0.37696000       0.35968000
    83  C          0.40358000       0.62304000       0.85968000
    84  C          0.59642000       0.62304000       0.64032000
    85  C          0.52582000       0.41937000       0.11762000
    86  C          0.47418000       0.41937000       0.38238000
    87  C          0.47418000       0.58063000       0.88238000
    88  C          0.52582000       0.58063000       0.61762000
    89  C          0.50042000       0.58477000       0.15002000
    90  C          0.49958000       0.58477000       0.34998000
    91  C          0.49958000       0.41523000       0.84998000
    92  C          0.50042000       0.41523000       0.65002000
    93  C          0.54392000       0.71987000       0.20522000
    94  C          0.45608000       0.71987000       0.29478000
    95  C          0.45608000       0.28013000       0.79478000
    96  C          0.54392000       0.28013000       0.70522000
    97  C          0.61482000       0.68057000       0.22682000
    98  C          0.38518000       0.68057000       0.27318000
    99  C          0.38518000       0.31943000       0.77318000
   100  C          0.61482000       0.31943000       0.72682000
   101  C          0.63962000       0.51197000       0.19652000
   102  C          0.36038000       0.51197000       0.30348000
   103  C          0.36038000       0.48803000       0.80348000
   104  C          0.63962000       0.48803000       0.69652000
   105  F          0.43075120       0.62044000       0.12520150
   106  F          0.56924880       0.62044000       0.37479850
   107  F          0.56924880       0.37956000       0.87479850
   108  F          0.43075120       0.37956000       0.62520150
   109  F          0.48054130       0.29664000       0.06273150
   110  F          0.51945870       0.29664000       0.43726850
   111  F          0.51945870       0.70336000       0.93726850
   112  F          0.48054130       0.70336000       0.56273150
   113  F          0.65889130       0.81044000       0.27992140
   114  F          0.34110870       0.81044000       0.22007860
   115  F          0.34110870       0.18956000       0.72007860
   116  F          0.65889130       0.18956000       0.77992140
   117  F          0.70874110       0.48074000       0.22128130
   118  F          0.29125890       0.48074000       0.27871870
   119  F          0.29125890       0.51926000       0.77871870
   120  F          0.70874110       0.51926000       0.72128130
   121  I          0.63960200       0.13699400       0.08787200
   122  I          0.36039800       0.13699400       0.41212800
   123  I          0.36039800       0.86300600       0.91212800
   124  I          0.63960200       0.86300600       0.58787200
   125  N          0.52134190       0.91576000       0.23102000
   126  N          0.47865810       0.91576000       0.26898000
   127  N          0.47865810       0.08424000       0.76898000
   128  N          0.52134190       0.08424000       0.73102000
   129  C          0.89462000       0.09107000       0.84642000
   130  C          0.10538000       0.09107000       0.65358000
   131  C          0.10538000       0.90893000       0.15358000
   132  C          0.89462000       0.90893000       0.34642000
   133  C          0.96452000       0.04267000       0.87752000
   134  C          0.03548000       0.04267000       0.62248000
   135  C          0.03548000       0.95733000       0.12248000
   136  C          0.96452000       0.95733000       0.37752000
   137  C         -0.00728000       0.87307000       0.84892000
   138  C          0.00728000       0.87307000       0.65108000
   139  C          0.00728000       0.12693000       0.15108000
   140  C         -0.00728000       0.12693000       0.34892000
   141  C          0.95222000       0.74497000       0.78852000
   142  C          0.04778000       0.74497000       0.71148000
   143  C          0.04778000       0.25503000       0.21148000
   144  C          0.95222000       0.25503000       0.28852000
   145  C          0.88122000       0.79197000       0.75742000
   146  C          0.11878000       0.79197000       0.74258000
   147  C          0.11878000       0.20803000       0.24258000
   148  C          0.88122000       0.20803000       0.25742000
   149  C          0.85482000       0.96287000       0.78552000
   150  C          0.14518000       0.96287000       0.71448000
   151  C          0.14518000       0.03713000       0.21448000
   152  C          0.85482000       0.03713000       0.28552000
   153  F          0.78604120       0.00454000       0.75167140
   154  F          0.21395880       0.00454000       0.74832860
   155  F          0.21395880      -0.00454000       0.24832860
   156  F          0.78604120      -0.00454000       0.25167140
   157  F          0.84003130       0.67014000       0.69944150
   158  F          0.15996870       0.67014000       0.80055850
   159  F          0.15996870       0.32986000       0.30055850
   160  F          0.84003130       0.32986000       0.19944150
   161  F          0.00665130       0.15914000       0.93744150
   162  F         -0.00665130       0.15914000       0.56255850
   163  F         -0.00665130       0.84086000       0.06255850
   164  F          0.00665130       0.84086000       0.43744150
   165  F          0.06091120       0.82934000       0.88213160
   166  F          0.93908880       0.82934000       0.61786840
   167  F          0.93908880       0.17066000       0.11786840
   168  F          0.06091120       0.17066000       0.38213160
   169  I          0.84916200       0.33838400       0.89291200
   170  I          0.15083800       0.33838400       0.60708800
   171  I          0.15083800       0.66161600       0.10708800
   172  I          0.84916200       0.66161600       0.39291200
   173  N          0.97639190       0.54866000       0.76562000
   174  N          0.02360810       0.54866000       0.73438000
   175  N          0.02360810       0.45134000       0.23438000
   176  N          0.97639190       0.45134000       0.26562000
