data_SUWYIT
_symmetry_space_group_name_H-M    'P1'
_symmetry_Int_Tables_number       1
loop_
_symmetry_equiv_pos_site_id
_symmetry_equiv_pos_as_xyz
1 x,y,z
_cell_length_a                   6.001512
_cell_length_b                   15.9063
_cell_length_c                   21.2695
_cell_angle_alpha                78.0821
_cell_angle_beta                 84.6521
_cell_angle_gamma                88.8121
loop_
_atom_site_label
_atom_site_type_symbol
_atom_site_fract_x
_atom_site_fract_y
_atom_site_fract_z
     1  I          0.17513200       0.31595210       0.11408570
     2  I          0.82486800       0.68404790       0.88591430
     3  C          0.93357000       0.28515140       0.19337100
     4  C          0.06643000       0.71484860       0.80662900
     5  C          0.95506000       0.21516140       0.24333100
     6  C          0.04494000       0.78483860       0.75666900
     7  F          0.13682000       0.16404100       0.24170700
     8  F          0.86318000       0.83595900       0.75829300
     9  C          0.79576000       0.19492130       0.29420100
    10  C          0.20424000       0.80507870       0.70579900
    11  F          0.83088000       0.12359900       0.33944600
    12  F          0.16912000       0.87640100       0.66055400
    13  C          0.60156000       0.24290130       0.30048900
    14  C          0.39844000       0.75709870       0.69951100
    15  C          0.58407000       0.31318130       0.24992100
    16  C          0.41593000       0.68681870       0.75007900
    17  F          0.40258000       0.36430800       0.25134600
    18  F          0.59742000       0.63569200       0.74865400
    19  C          0.74206000       0.33325130       0.19857100
    20  C          0.25794000       0.66674870       0.80142900
    21  F          0.70738000       0.40237800       0.15215600
    22  F          0.29262000       0.59762200       0.84784400
    23  C          0.42176000       0.22629140       0.35320100
    24  C          0.57824000       0.77370860       0.64679900
    25  H          0.30050000       0.26370000       0.34880000
    26  H          0.69950000       0.73630000       0.65120000
    27  C          0.40886000       0.16570150       0.40580110
    28  C          0.59114000       0.83429850       0.59419890
    29  H          0.52920000       0.12790000       0.41130000
    30  H          0.47080000       0.87210000       0.58870000
    31  C          0.22276000       0.15205140       0.45664100
    32  C          0.77724000       0.84794860       0.54335900
    33  C          0.02836000       0.20033150       0.45454110
    34  C          0.97164000       0.79966850       0.54545890
    35  H          0.01180000       0.24430000       0.41890000
    36  H         -0.01180000       0.75570000       0.58110000
    37  C          0.85896000       0.18525160       0.50356110
    38  C          0.14104000       0.81474840       0.49643890
    39  H          0.73090000       0.21920000       0.50090000
    40  H          0.26910000       0.78080000       0.49910000
    41  C          0.87806000       0.11982140       0.55668100
    42  C          0.12194000       0.88017860       0.44331900
    43  C          0.06866000       0.07103160       0.56001110
    44  C          0.93134000       0.92896840       0.43998890
    45  H          0.08390000       0.02660000       0.59540000
    46  H          0.91610000       0.97340000       0.40460000
    47  C          0.23766000       0.08777160       0.51084120
    48  C          0.76234000       0.91222840       0.48915880
    49  H          0.36710000       0.05450000       0.51420000
    50  H          0.63290000       0.94550000       0.48580000
    51  O          0.70067000       0.11055110       0.60228800
    52  O          0.29933000       0.88944890       0.39771200
    53  C          0.70886000       0.04439150       0.65864110
    54  C          0.29114000       0.95560850       0.34135890
    55  H          0.83660000       0.05290000       0.68150000
    56  H          0.16340000       0.94710000       0.31850000
    57  H          0.72340000       0.98870000       0.64680000
    58  H          0.27660000       0.01130000       0.35320000
    59  C          0.49486000       0.04869160       0.70082110
    60  C          0.50514000       0.95130840       0.29917890
    61  H          0.36920000       0.04040000       0.67720000
    62  H          0.63080000       0.95960000       0.32280000
    63  H          0.48080000       0.10540000       0.71100000
    64  H          0.51920000       0.89460000       0.28900000
    65  C          0.48576000       0.98194850       0.76283110
    66  C          0.51424000       0.01805150       0.23716890
    67  H          0.61240000       0.99030000       0.78610000
    68  H          0.38760000       0.00970000       0.21390000
    69  H          0.50070000       0.92540000       0.75240000
    70  H          0.49930000       0.07460000       0.24760000
    71  C          0.27306000       0.98429840       0.80657120
    72  C          0.72694000       0.01570160       0.19342880
    73  H          0.25770000       0.04090000       0.81690000
    74  H          0.74230000       0.95910000       0.18310000
    75  H          0.14650000       0.97550000       0.78350000
    76  H          0.85350000       0.02450000       0.21650000
    77  C          0.26545000       0.91775820       0.86867120
    78  C          0.73455000       0.08224180       0.13132880
    79  H          0.27910000       0.86110000       0.85840000
    80  H          0.72090000       0.13890000       0.14160000
    81  H          0.39320000       0.92610000       0.89150000
    82  H          0.60680000       0.07390000       0.10850000
    83  C          0.05514000       0.92088000       0.91246150
    84  C          0.94486000       0.07912000       0.08753850
    85  H          0.06250000       0.87800000       0.95130000
    86  H          0.93750000       0.12200000       0.04870000
    87  H          0.92830000       0.91000000       0.89100000
    88  H          0.07170000       0.09000000       0.10900000
    89  H          0.04060000       0.97670000       0.92310000
    90  H          0.95940000       0.02330000       0.07690000
    91  N          0.48963000       0.35821140       0.00690900
    92  N          0.51037000       0.64178860       0.99309100
    93  C          0.45794000       0.41857160       0.95512880
    94  C          0.54206000       0.58142840       0.04487120
    95  H          0.32410000       0.44910000       0.95480000
    96  H          0.67590000       0.55090000       0.04520000
    97  C          0.61024000       0.43861150       0.90221890
    98  C          0.38976000       0.56138850       0.09778110
    99  H          0.57790000       0.48130000       0.86720000
   100  H          0.42210000       0.51870000       0.13280000
   101  C          0.81274000       0.39506140       0.90095900
   102  C          0.18726000       0.60493860       0.09904100
   103  C          0.84534000       0.33308170       0.95495890
   104  C          0.15466000       0.66691830       0.04504110
   105  H          0.97830000       0.30190000       0.95710000
   106  H          0.02170000       0.69810000       0.04290000
   107  C          0.68174000       0.31696180       0.00592120
   108  C          0.31826000       0.68303820      -0.00592120
   109  H          0.70880000       0.27450000       0.04160000
   110  H          0.29120000       0.72550000       0.95840000
   111  C         -0.01646000       0.41149150       0.84605900
   112  C          0.01646000       0.58850850       0.15394100
   113  H          0.11290000       0.37830000       0.84960000
   114  H          0.88710000       0.62170000       0.15040000
   115  C          0.97094000       0.46899140       0.79210900
   116  C          0.02906000       0.53100860       0.20789100
   117  H          0.84050000       0.50170000       0.78920000
   118  H          0.15950000       0.49830000       0.21080000
   119  C          0.13734000       0.48753130       0.73633100
   120  C          0.86266000       0.51246870       0.26366900
   121  C          0.09314000       0.55021140       0.68304900
   122  C          0.90686000       0.44978860       0.31695100
   123  H          0.95720000       0.57930000       0.68370000
   124  H          0.04280000       0.42070000       0.31630000
   125  C          0.24444000       0.57083140       0.62911900
   126  C          0.75556000       0.42916860       0.37088100
   127  H          0.20950000       0.61280000       0.59400000
   128  H          0.79050000       0.38720000       0.40600000
   129  C          0.44744000       0.52876140       0.62773900
   130  C          0.55256000       0.47123860       0.37226100
   131  C          0.49534000       0.46573150       0.68012900
   132  C          0.50466000       0.53426850       0.31987100
   133  H          0.63130000       0.43670000       0.67930000
   134  H          0.36870000       0.56330000       0.32070000
   135  C          0.34314000       0.44586140       0.73327900
   136  C          0.65686000       0.55413860       0.26672100
   137  H          0.37840000       0.40350000       0.76810000
   138  H          0.62160000       0.59650000       0.23190000
   139  O          0.61013000       0.54319100       0.57778300
   140  O          0.38987000       0.45680900       0.42221700
   141  C          0.57584000       0.60903150       0.52277900
   142  C          0.42416000       0.39096850       0.47722100
   143  H          0.55160000       0.66380000       0.53560000
   144  H          0.44840000       0.33620000       0.46440000
   145  H          0.44540000       0.59600000       0.50280000
   146  H          0.55460000       0.40400000       0.49720000
   147  C          0.78014000       0.61314150       0.47622900
   148  C          0.21986000       0.38685850       0.52377100
   149  H          0.80250000       0.55770000       0.46430000
   150  H          0.19750000       0.44230000       0.53570000
   151  H          0.90930000       0.62450000       0.49740000
   152  H          0.09070000       0.37550000       0.50260000
   153  C          0.76554000       0.68169150       0.41552900
   154  C          0.23446000       0.31830850       0.58447100
   155  H          0.63470000       0.67120000       0.39470000
   156  H          0.36530000       0.32880000       0.60530000
   157  H          0.74760000       0.73750000       0.42710000
   158  H          0.25240000       0.26250000       0.57290000
   159  C          0.97224000       0.68277150       0.36860900
   160  C          0.02776000       0.31722850       0.63139100
   161  H          0.10160000       0.69420000       0.38970000
   162  H          0.89840000       0.30580000       0.61030000
   163  H         -0.00830000       0.62610000       0.35870000
   164  H          0.00830000       0.37390000       0.64130000
   165  C          0.96744000       0.74806150       0.30597890
   166  C          0.03256000       0.25193850       0.69402110
   167  H          0.83880000       0.73690000       0.28450000
   168  H          0.16120000       0.26310000       0.71550000
   169  H          0.94930000       0.80500000       0.31550000
   170  H          0.05070000       0.19500000       0.68450000
   171  C          0.17684000       0.74655150       0.26077890
   172  C          0.82316000       0.25344850       0.73922110
   173  H          0.30440000       0.75760000       0.28270000
   174  H          0.69560000       0.24240000       0.71730000
   175  H          0.19470000       0.68920000       0.25200000
   176  H          0.80530000       0.31080000       0.74800000
   177  C          0.18194000       0.80981160       0.19728890
   178  C          0.81806000       0.19018840       0.80271110
   179  H          0.16290000       0.86730000       0.20570000
   180  H          0.83710000       0.13270000       0.79430000
   181  H          0.05610000       0.79840000       0.17480000
   182  H          0.94390000       0.20160000       0.82520000
   183  C          0.39494000       0.80713160       0.15375890
   184  C          0.60506000       0.19286840       0.84624110
   185  H          0.52070000       0.81770000       0.17660000
   186  H          0.47930000       0.18230000       0.82340000
   187  H          0.41270000       0.74980000       0.14490000
   188  H          0.58730000       0.25020000       0.85510000
   189  C          0.40265000       0.87128190       0.09028880
   190  C          0.59735000       0.12871810       0.90971120
   191  H          0.38760000       0.92870000       0.09900000
   192  H          0.61240000       0.07130000       0.90100000
   193  H          0.27590000       0.86130000       0.06760000
   194  H          0.72410000       0.13870000       0.93240000
   195  C          0.61576000       0.86672000       0.04697850
   196  C          0.38424000       0.13328000       0.95302150
   197  H          0.61000000       0.90870000       0.00760000
   198  H          0.39000000       0.09130000       0.99240000
   199  H          0.63040000       0.81040000       0.03730000
   200  H          0.36960000       0.18960000       0.96270000
   201  H          0.74190000       0.87810000       0.06860000
   202  H          0.25810000       0.12190000       0.93140000
