data_SUZZOE
_symmetry_space_group_name_H-M    'P1'
_symmetry_Int_Tables_number       1
loop_
_symmetry_equiv_pos_site_id
_symmetry_equiv_pos_as_xyz
1 x,y,z
_cell_length_a                   4.75401
_cell_length_b                   11.9982
_cell_length_c                   19.7633
_cell_angle_alpha                99.8701
_cell_angle_beta                 92.8501
_cell_angle_gamma                95.454
loop_
_atom_site_label
_atom_site_type_symbol
_atom_site_fract_x
_atom_site_fract_y
_atom_site_fract_z
     1  O          0.85532000      -0.00738200       0.91131500
     2  O          0.14468000       0.00738200       0.08868500
     3  O          0.79532000       0.81135800       0.92326500
     4  O          0.20468000       0.18864200       0.07673500
     5  C          0.74023000       0.91224110       0.93749600
     6  C          0.25977000       0.08775890       0.06250400
     7  C          0.52043000       0.93772120       0.98909700
     8  C          0.47957000       0.06227880       0.01090300
     9  H          0.57230000       0.90740000       0.02990000
    10  H          0.42770000       0.09260000       0.97010000
    11  H          0.34020000       0.89730000       0.96960000
    12  H          0.65980000       0.10270000       0.03040000
    13  N          0.24812000       0.95059100       0.82320600
    14  N          0.75188000       0.04940900       0.17679400
    15  N          0.49402000       0.82416100       0.75019600
    16  N          0.50598000       0.17583900       0.24980400
    17  N          0.59893000       0.02482100       0.75912600
    18  N          0.40107000       0.97517900       0.24087400
    19  N          0.15943000       0.75890100       0.81847600
    20  N          0.84057000       0.24109900       0.18152400
    21  H          0.18850000       0.68990000       0.80250000
    22  H          0.81150000       0.31010000       0.19750000
    23  H          0.03660000       0.77240000       0.84850000
    24  H          0.96340000       0.22760000       0.15150000
    25  N          0.36873000       0.14319100       0.83610700
    26  N          0.63127000       0.85680900       0.16389300
    27  H          0.46760000       0.20090000       0.82560000
    28  H          0.53240000       0.79910000       0.17440000
    29  H          0.24510000       0.15320000       0.86630000
    30  H          0.75490000       0.84680000       0.13370000
    31  C          0.30243000       0.84357120       0.79690700
    32  C          0.69757000       0.15642880       0.20309300
    33  C          0.40663000       0.03957120       0.80592700
    34  C          0.59337000       0.96042880       0.19407300
    35  C          0.62613000       0.91673120       0.73226700
    36  C          0.37387000       0.08326880       0.26773300
    37  C          0.82353000       0.89822130       0.67636700
    38  C          0.17647000       0.10177870       0.32363300
    39  C          0.87923000       0.78895130       0.64795800
    40  C          0.12077000       0.21104870       0.35204200
    41  H          0.79720000       0.72690000       0.66500000
    42  H          0.20280000       0.27310000       0.33500000
    43  C          0.18053000       0.86170150       0.56795800
    44  C          0.81947000       0.13829850       0.43204200
    45  C          0.95114000      -0.01158860       0.65038800
    46  C          0.04886000       0.01158860       0.34961200
    47  H          0.91890000       0.06220000       0.66930000
    48  H          0.08110000       0.93780000       0.33070000
    49  C          0.05573000       0.77212140       0.59455800
    50  C          0.94427000       0.22787860       0.40544200
    51  H          0.09080000       0.69850000       0.57620000
    52  H          0.90920000       0.30150000       0.42380000
    53  C          0.12574000       0.97076150       0.59685900
    54  C          0.87426000       0.02923850       0.40314100
    55  H          0.20820000       0.03280000       0.57980000
    56  H          0.79180000       0.96720000       0.42020000
    57  C          0.37054000       0.84239180       0.50946900
    58  C          0.62946000       0.15760820       0.49053100
    59  H          0.38340000       0.76230000       0.49610000
    60  H          0.61660000       0.23770000       0.50390000
    61  H          0.55580000       0.88080000       0.52380000
    62  H          0.44420000       0.11920000       0.47620000
    63  H          0.29380000       0.87170000       0.47100000
    64  H          0.70620000       0.12830000       0.52900000
    65  H          0.11240000       0.96421800       0.85151100
    66  H          0.88760000       0.03578200       0.14848900
    67  N          0.83583000       0.33518100       0.85544600
    68  N          0.16417000       0.66481900       0.14455400
    69  N          0.06503000       0.51793100       0.84955600
    70  N          0.93497000       0.48206900       0.15044400
    71  N          0.19723000       0.42270100       0.94140600
    72  N          0.80277000       0.57729900       0.05859400
    73  N         -0.02447000       0.24597100       0.94364700
    74  N          0.02447000       0.75402900       0.05635300
    75  H          0.08260000       0.24340000       0.97960000
    76  H          0.91740000       0.75660000       0.02040000
    77  H          0.85180000       0.18960000       0.92710000
    78  H          0.14820000       0.81040000       0.07290000
    79  N          0.41673000       0.59607110       0.93322700
    80  N          0.58327000       0.40392890       0.06677300
    81  H          0.51970000       0.59300000       0.96970000
    82  H          0.48030000       0.40700000       0.03030000
    83  H          0.44030000       0.65440000       0.91340000
    84  H          0.55970000       0.34560000       0.08660000
    85  C          0.00143000       0.33809120       0.91331700
    86  C         -0.00143000       0.66190880       0.08668300
    87  C          0.87903000       0.42778120       0.82633800
    88  C          0.12097000       0.57221880       0.17366200
    89  C          0.22123000       0.51071120       0.90748800
    90  C          0.77877000       0.48928880       0.09251200
    91  C          0.69783000       0.42818120       0.76328700
    92  C          0.30217000       0.57181880       0.23671300
    93  C          0.61783000       0.52877130       0.74637800
    94  C          0.38217000       0.47122870       0.25362200
    95  H          0.68740000       0.59780000       0.77370000
    96  H          0.31260000       0.40220000       0.22630000
    97  C          0.59444000       0.32670130       0.72052800
    98  C          0.40556000       0.67329870       0.27947200
    99  H          0.64650000       0.25820000       0.73050000
   100  H          0.35350000       0.74180000       0.26950000
   101  C          0.43664000       0.52766140       0.68954900
   102  C          0.56336000       0.47233860       0.31045100
   103  H          0.38340000       0.59610000       0.67980000
   104  H          0.61660000       0.40390000       0.32020000
   105  C          0.33144000       0.42657160       0.64654900
   106  C          0.66856000       0.57342840       0.35345100
   107  C          0.41524000       0.32658150       0.66342900
   108  C          0.58476000       0.67341850       0.33657100
   109  H          0.34870000       0.25760000       0.63550000
   110  H          0.65130000       0.74240000       0.36450000
   111  C          0.13365000       0.42612000       0.58527120
   112  C          0.86635000       0.57388000       0.41472880
   113  H          0.08380000       0.34920000       0.56190000
   114  H          0.91620000       0.65080000       0.43810000
   115  H          0.22450000       0.46980000       0.55460000
   116  H          0.77550000       0.53020000       0.44540000
   117  H          0.96560000       0.45890000       0.60000000
   118  H          0.03440000       0.54110000       0.40000000
