data_TACTAU
_symmetry_space_group_name_H-M    'P1'
_symmetry_Int_Tables_number       1
loop_
_symmetry_equiv_pos_site_id
_symmetry_equiv_pos_as_xyz
1 x,y,z
_cell_length_a                   7.34872
_cell_length_b                   8.86612
_cell_length_c                   19.44975
_cell_angle_alpha                91.7452
_cell_angle_beta                 90.0202
_cell_angle_gamma                97.1472
loop_
_atom_site_label
_atom_site_type_symbol
_atom_site_fract_x
_atom_site_fract_y
_atom_site_fract_z
     1  N          0.01569190       0.21515160       0.31312800
     2  N         -0.01569190       0.78484840       0.68687200
     3  N          0.92872000       0.19953160       0.19345800
     4  N          0.07128000       0.80046840       0.80654200
     5  N          0.00552000      -0.00929830       0.24831900
     6  N         -0.00552000       0.00929830       0.75168100
     7  N          0.43992000       0.56440170       0.31697800
     8  N          0.56008000       0.43559830       0.68302200
     9  N          0.53012000       0.35557160       0.36969800
    10  N          0.46988000       0.64442840       0.63030200
    11  N          0.43716190       0.34535160       0.25082800
    12  N          0.56283810       0.65464840       0.74917200
    13  C         -0.00818000       0.36322000       0.31478100
    14  C          0.00818000       0.63678000       0.68521900
    15  C          0.93712000       0.43372000       0.25658100
    16  C          0.06288000       0.56628000       0.74341900
    17  H          0.92160000       0.53630000       0.25830000
    18  H          0.07840000       0.46370000       0.74170000
    19  C          0.90642000       0.34842000       0.19620100
    20  C          0.09358000       0.65158000       0.80379900
    21  C         -0.01678000       0.13980190       0.25273900
    22  C          0.01678000       0.86019810       0.74726100
    23  C          0.08602000       0.91312000       0.30339100
    24  C          0.91398000       0.08688000       0.69660900
    25  H          0.18360000       0.98290000       0.32460000
    26  H          0.81640000       0.01710000       0.67540000
    27  H          0.14140000       0.82840000       0.28330000
    28  H          0.85860000       0.17160000       0.71670000
    29  C          0.95522000       0.85378180       0.35883900
    30  C          0.04478000       0.14621820       0.64116100
    31  C          0.01402000       0.86233190       0.42712900
    32  C         -0.01402000       0.13766810       0.57287100
    33  H          0.13070000       0.91000000       0.43820000
    34  H          0.86930000       0.09000000       0.56180000
    35  C          0.90063000       0.80072000       0.47882100
    36  C          0.09937000       0.19928000       0.52117900
    37  H          0.94190000       0.80660000       0.52410000
    38  H          0.05810000       0.19340000       0.47590000
    39  C          0.72622000       0.73032000       0.46301900
    40  C          0.27378000       0.26968000       0.53698100
    41  H          0.65120000       0.68800000       0.49770000
    42  H          0.34880000       0.31200000       0.50230000
    43  C          0.66242000       0.72272180       0.39514900
    44  C          0.33758000       0.27727820       0.60485100
    45  C          0.77812000       0.78437180       0.34369900
    46  C          0.22188000       0.21562820       0.65630100
    47  H          0.73660000       0.77920000       0.29840000
    48  H          0.26340000       0.22080000       0.70160000
    49  C          0.46592000       0.65632000       0.37979900
    50  C          0.53408000       0.34368000       0.62020100
    51  H          0.42070000       0.59450000       0.41790000
    52  H          0.57930000       0.40550000       0.58210000
    53  H          0.39180000       0.73920000       0.37720000
    54  H          0.60820000       0.26080000       0.62280000
    55  C          0.47092000       0.41725190       0.31283900
    56  C          0.52908000       0.58274810       0.68716100
    57  C          0.56182000       0.21002000       0.36320100
    58  C          0.43818000       0.78998000       0.63679900
    59  C          0.53342000       0.12812000       0.30123100
    60  C          0.46658000       0.87188000       0.69876900
    61  H          0.55800000       0.02780000       0.29730000
    62  H          0.44200000       0.97220000       0.70270000
    63  C          0.46792000       0.19882000       0.24558900
    64  C          0.53208000       0.80118000       0.75441100
    65  C          0.84593000       0.41492000       0.13135100
    66  C          0.15407000       0.58508000       0.86864900
    67  H          0.91860000       0.38450000       0.09360000
    68  H          0.08140000       0.61550000       0.90640000
    69  H          0.86120000       0.52380000       0.13620000
    70  H          0.13880000       0.47620000       0.86380000
    71  H          0.71900000       0.37890000       0.12270000
    72  H          0.28100000       0.62110000       0.87730000
    73  C          0.02193000       0.44702000       0.38220100
    74  C          0.97807000       0.55298000       0.61779900
    75  H          0.12600000       0.41520000       0.40490000
    76  H          0.87400000       0.58480000       0.59510000
    77  H          0.91510000       0.42540000       0.41040000
    78  H          0.08490000       0.57460000       0.58960000
    79  H          0.04380000       0.55420000       0.37480000
    80  H          0.95620000       0.44580000       0.62520000
    81  C          0.42873000       0.11762000       0.17767100
    82  C          0.57127000       0.88238000       0.82232900
    83  H          0.32450000       0.15320000       0.15670000
    84  H          0.67550000       0.84680000       0.84330000
    85  H          0.40320000       0.01020000       0.18450000
    86  H          0.59680000      -0.01020000       0.81550000
    87  H          0.53340000       0.13710000       0.14830000
    88  H          0.46660000       0.86290000       0.85170000
    89  C          0.62923000       0.13952000       0.42582100
    90  C          0.37077000       0.86048000       0.57417900
    91  H          0.66530000       0.21740000       0.46020000
    92  H          0.33470000       0.78260000       0.53980000
    93  H          0.73250000       0.08780000       0.41380000
    94  H          0.26750000       0.91220000       0.58620000
    95  H          0.53290000       0.06810000       0.44350000
    96  H          0.46710000       0.93190000       0.55650000
    97  H         -0.02070000       0.94620000       0.20901100
    98  H          0.02070000       0.05380000       0.79098900
    99  H          0.41130000       0.60120000       0.27781100
   100  H          0.58870000       0.39880000       0.72218900
   101  O          0.32322190       0.46328140       0.13733700
   102  O          0.67677810       0.53671860       0.86266300
   103  H          0.35590000       0.43810000       0.17520000
   104  H          0.64410000       0.56190000       0.82480000
   105  O          0.34892000       0.69338150       0.18926700
   106  O          0.65108000       0.30661850       0.81073300
   107  O          0.88672000       0.83349150       0.12270700
   108  O          0.11328000       0.16650850       0.87729300
   109  O          0.84326190       0.05278140       0.07554700
   110  O          0.15673810       0.94721860       0.92445300
   111  H          0.87600000       0.08730000       0.11380000
   112  H          0.12400000       0.91270000       0.88620000
   113  C          0.31802000       0.61102000       0.13817100
   114  C          0.68198000       0.38898000       0.86182900
   115  C          0.27163000       0.67242000       0.06947100
   116  C          0.72837000       0.32758000       0.93052900
   117  H          0.16190000       0.72250000       0.07400000
   118  H          0.83810000       0.27750000       0.92600000
   119  H          0.24670000       0.58890000       0.03610000
   120  H          0.75330000       0.41110000       0.96390000
   121  C          0.43013000       0.78562000       0.04407100
   122  C          0.56987000       0.21438000       0.95592900
   123  H          0.38820000       0.83820000       0.00520000
   124  H          0.61180000       0.16180000      -0.00520000
   125  H          0.46560000       0.86090000       0.08040000
   126  H          0.53440000       0.13910000       0.91960000
   127  C          0.59713000       0.71002000       0.02254100
   128  C          0.40287000       0.28998000       0.97745900
   129  H          0.56730000       0.64760000       0.98130000
   130  H          0.43270000       0.35240000       0.01870000
   131  H          0.62650000       0.64350000       0.05850000
   132  H          0.37350000       0.35650000       0.94150000
   133  C          0.76553000       0.82492000       0.00872100
   134  C          0.23447000       0.17508000       0.99127900
   135  H          0.86030000       0.77260000       0.98740000
   136  H          0.13970000       0.22740000       0.01260000
   137  H          0.73260000       0.89950000       0.97700000
   138  H          0.26740000       0.10050000       0.02300000
   139  C          0.83812000       0.90412000       0.07431100
   140  C          0.16188000       0.09588000       0.92568900
