data_TAKZUC
_symmetry_space_group_name_H-M    'P1'
_symmetry_Int_Tables_number       1
loop_
_symmetry_equiv_pos_site_id
_symmetry_equiv_pos_as_xyz
1 x,y,z
_cell_length_a                   8.579412
_cell_length_b                   10.802717
_cell_length_c                   12.5362
_cell_angle_alpha                95.0115
_cell_angle_beta                 94.6645
_cell_angle_gamma                99.3595
loop_
_atom_site_label
_atom_site_type_symbol
_atom_site_fract_x
_atom_site_fract_y
_atom_site_fract_z
     1  O          0.55428170       0.59193130       0.39322110
     2  O          0.44571830       0.40806870       0.60677890
     3  O          0.54193150       0.77245130       0.32431100
     4  O          0.45806850       0.22754870       0.67568900
     5  C          0.95917000       0.75054000       0.39592000
     6  C          0.04083000       0.24946000       0.60408000
     7  H          0.85370000       0.75040000       0.37190000
     8  H          0.14630000       0.24960000       0.62810000
     9  C          0.00853000       0.63903000       0.41382000
    10  C         -0.00853000       0.36097000       0.58618000
    11  H          0.93630000       0.56380000       0.40310000
    12  H          0.06370000       0.43620000       0.59690000
    13  C          0.16513000       0.63852000       0.44780160
    14  C          0.83487000       0.36148000       0.55219840
    15  H          0.19840000       0.56260000       0.45910000
    16  H          0.80160000       0.43740000       0.54090000
    17  C          0.27282000       0.74913190       0.46513140
    18  C          0.72718000       0.25086810       0.53486860
    19  C          0.44612000       0.74661170       0.49672140
    20  C          0.55388000       0.25338830       0.50327860
    21  H          0.49900000       0.83320000       0.52040000
    22  H          0.50100000       0.16680000       0.47960000
    23  C          0.52102000       0.70003190       0.39758150
    24  C          0.47898000       0.29996810       0.60241850
    25  C          0.06274000       0.86093000       0.41282000
    26  C          0.93726000       0.13907000       0.58718000
    27  H          0.02870000       0.93620000       0.40040000
    28  H          0.97130000       0.06380000       0.59960000
    29  C          0.22013000       0.86062000       0.44889180
    30  C          0.77987000       0.13938000       0.55110820
    31  H          0.29080000       0.93640000       0.46220000
    32  H          0.70920000       0.06360000       0.53780000
    33  O          0.46700180       0.67251130       0.58221100
    34  O          0.53299820       0.32748870       0.41778900
    35  H          0.47970000       0.60220000       0.55810000
    36  H          0.52030000       0.39780000       0.44190000
    37  O          0.45815170       0.98508130       0.29392100
    38  O          0.54184830       0.01491870       0.70607900
    39  H          0.49730000       0.92150000       0.30080000
    40  H          0.50270000       0.07850000       0.69920000
    41  O          0.48754180       0.93975140       0.12108110
    42  O          0.51245820       0.06024860       0.87891890
    43  C          0.89487000       0.08543000       0.25513000
    44  C          0.10513000       0.91457000       0.74487000
    45  C          0.93237000       0.01123000       0.16963000
    46  C          0.06763000      -0.01123000       0.83037000
    47  H          0.85320000       0.95220000       0.12980000
    48  H          0.14680000       0.04780000       0.87020000
    49  C          0.08953000       0.02332000       0.14133190
    50  C          0.91047000       0.97668000       0.85866810
    51  H          0.11350000       0.97310000       0.08280000
    52  H          0.88650000       0.02690000       0.91720000
    53  C          0.20782000       0.10995170       0.20098150
    54  C          0.79218000       0.89004830       0.79901850
    55  C          0.37742000       0.12298170       0.17375140
    56  C          0.62258000       0.87701830       0.82624860
    57  H          0.44070000       0.19430000       0.22010000
    58  H          0.55930000       0.80570000       0.77990000
    59  C          0.44702000       0.00523180       0.19305150
    60  C          0.55298000      -0.00523180       0.80694850
    61  C          0.01093000       0.17053000       0.31182000
    62  C         -0.01093000       0.82947000       0.68818000
    63  H         -0.01400000       0.22210000       0.36900000
    64  H          0.01400000       0.77790000       0.63100000
    65  C          0.16682000       0.18282000       0.28646160
    66  C          0.83318000       0.81718000       0.71353840
    67  H          0.24490000       0.24120000       0.32790000
    68  H          0.75510000       0.75880000       0.67210000
    69  O          0.38618190       0.14837140       0.06509110
    70  O          0.61381810       0.85162860       0.93490890
    71  H          0.42480000       0.09340000       0.03260000
    72  H          0.57520000       0.90660000       0.96740000
    73  C          0.21803000       0.49742000       0.16420180
    74  C          0.78197000       0.50258000       0.83579820
    75  H          0.21750000       0.46280000       0.22960000
    76  H          0.78250000       0.53720000       0.77040000
    77  C          0.16923000       0.61213000       0.15621190
    78  C          0.83077000       0.38787000       0.84378810
    79  H          0.13630000       0.65400000       0.21610000
    80  H          0.86370000       0.34600000       0.78390000
    81  C          0.16893000       0.66402000       0.06212000
    82  C          0.83107000       0.33598000       0.93788000
    83  H          0.13470000       0.74090000       0.05760000
    84  H          0.86530000       0.25910000       0.94240000
    85  C          0.22002000       0.60236190       0.97004840
    86  C          0.77998000       0.39763810       0.02995160
    87  C          0.22373000       0.65572000       0.87115820
    88  C          0.77627000       0.34428000       0.12884180
    89  H          0.18820000       0.73170000       0.86410000
    90  H          0.81180000       0.26830000       0.13590000
    91  C          0.27853000       0.59652000       0.78778830
    92  C          0.72147000       0.40348000       0.21221170
    93  H          0.28260000       0.63210000       0.72290000
    94  H          0.71740000       0.36790000       0.27710000
    95  C          0.26683000       0.43432000       0.07813170
    96  C          0.73317000       0.56568000       0.92186830
    97  H          0.29840000       0.35670000       0.08460000
    98  H          0.70160000       0.64330000       0.91540000
    99  C          0.26962000       0.48600180       0.97976850
   100  C          0.73038000       0.51399820       0.02023150
   101  N          0.32848180       0.48414150       0.79733870
   102  N          0.67151820       0.51585850       0.20266130
   103  H          0.36430000       0.44900000       0.74240000
   104  H          0.63570000       0.55100000       0.25760000
   105  C          0.32542000       0.42518180       0.88630850
   106  C          0.67458000       0.57481820       0.11369150
   107  N          0.37362000       0.31596160       0.88591870
   108  N          0.62638000       0.68403840       0.11408130
   109  H          0.40650000       0.28330000       0.82870000
   110  H          0.59350000       0.71670000       0.17130000
   111  H          0.37220000       0.27700000       0.94290000
   112  H          0.62780000       0.72300000       0.05710000
