data_TALPAB
_symmetry_space_group_name_H-M    'P1'
_symmetry_Int_Tables_number       1
loop_
_symmetry_equiv_pos_site_id
_symmetry_equiv_pos_as_xyz
1 x,y,z
_cell_length_a                   7.06773
_cell_length_b                   8.69674
_cell_length_c                   11.15765
_cell_angle_alpha                100.9904
_cell_angle_beta                 100.3804
_cell_angle_gamma                104.0574
loop_
_atom_site_label
_atom_site_type_symbol
_atom_site_fract_x
_atom_site_fract_y
_atom_site_fract_z
     1  I          0.91981800       0.20411200       0.90925200
     2  I          0.08018200       0.79588800       0.09074800
     3  C          0.66806000       0.07983000       0.96323000
     4  C          0.33194000       0.92017000       0.03677000
     5  C          0.47986000       0.02943000       0.88093000
     6  C          0.52014000       0.97057000       0.11907000
     7  H          0.46608300       0.04910100       0.79929500
     8  H          0.53391700       0.95089900       0.20070500
     9  C          0.31136000       0.95027000       0.91723000
    10  C          0.68864000       0.04973000       0.08277000
    11  H          0.18283600       0.91679000       0.86083900
    12  H          0.81716400       0.08321000       0.13916100
    13  S          0.26432110       0.85461900       0.53870700
    14  S          0.73567890       0.14538100       0.46129300
    15  N          0.26244000       0.37783000       0.81982000
    16  N          0.73756000       0.62217000       0.18018000
    17  N          0.75724000       0.61403000       0.69582000
    18  N          0.24276000       0.38597000       0.30418000
    19  C          0.07494000       0.76424000       0.59762000
    20  C          0.92506000       0.23576000       0.40238000
    21  C          0.06364000       0.61584000       0.63583000
    22  C          0.93636000       0.38416000       0.36417000
    23  H          0.16765000       0.56539500       0.62890800
    24  H          0.83235000       0.43460500       0.37109200
    25  C          0.90844000       0.54374000       0.68193000
    26  C          0.09156000       0.45626000       0.31807000
    27  H          0.90478100       0.44341700       0.70477000
    28  H          0.09521900       0.55658300       0.29523000
    29  C          0.76244000       0.75773000       0.66133000
    30  C          0.23756000       0.24227000       0.33867000
    31  H          0.65754000       0.80616300       0.67113500
    32  H          0.34246000       0.19383700       0.32886500
    33  C          0.91294000       0.83274000       0.61363000
    34  C          0.08706000       0.16726000       0.38637000
    35  H          0.91119000       0.93205500       0.59049500
    36  H          0.08881000       0.06794500       0.40950500
    37  C          0.59084000       0.53373000       0.73973000
    38  C          0.40916000       0.46627000       0.26027000
    39  C          0.48544000       0.37163000       0.68063000
    40  C          0.51456000       0.62837000       0.31937000
    41  H          0.52453500       0.31186300       0.61355800
    42  H          0.47546500       0.68813700       0.38644200
    43  C          0.32094000       0.30044000       0.72353000
    44  C          0.67906000       0.69956000       0.27647000
    45  H          0.24548900       0.19078500       0.68231800
    46  H          0.75451100       0.80921500       0.31768200
    47  C          0.36895000       0.53284000       0.87503000
    48  C          0.63105000       0.46716000       0.12497000
    49  H          0.32921900       0.58902900       0.94349900
    50  H          0.67078100       0.41097100       0.05650100
    51  C          0.53394000       0.61693000       0.83873000
    52  C          0.46606000       0.38307000       0.16127000
    53  H          0.60477600       0.72735500       0.88040900
    54  H          0.39522400       0.27264500       0.11959100
