data_TALPEF
_symmetry_space_group_name_H-M    'P1'
_symmetry_Int_Tables_number       1
loop_
_symmetry_equiv_pos_site_id
_symmetry_equiv_pos_as_xyz
1 x,y,z
_cell_length_a                   11.14013
_cell_length_b                   15.92704
_cell_length_c                   16.25664
_cell_angle_alpha                63.2163
_cell_angle_beta                 76.3702
_cell_angle_gamma                71.2992
loop_
_atom_site_label
_atom_site_type_symbol
_atom_site_fract_x
_atom_site_fract_y
_atom_site_fract_z
     1  C          0.03564000       0.64603000       0.82613000
     2  C          0.96436000       0.35397000       0.17387000
     3  C          0.90874000       0.69123000       0.85073000
     4  C          0.09126000       0.30877000       0.14927000
     5  H          0.89149300       0.75325200       0.85144600
     6  H          0.10850700       0.24674800       0.14855400
     7  C          0.81164000       0.64833000       0.87313000
     8  C          0.18836000       0.35167000       0.12687000
     9  H          0.72789200       0.68077400       0.88916200
    10  H          0.27210800       0.31922600       0.11083800
    11  C          0.72944000       0.51393000       0.89493000
    12  C          0.27056000       0.48607000       0.10507000
    13  C          0.61524000       0.56663000       0.85673000
    14  C          0.38476000       0.43337000       0.14327000
    15  H          0.60271100       0.63348000       0.81648400
    16  H          0.39728900       0.36652000       0.18351600
    17  C          0.52014000       0.51913000       0.87883000
    18  C          0.47986000       0.48087000       0.12117000
    19  H          0.44127100       0.55555900       0.85374800
    20  H          0.55872900       0.44444100       0.14625200
    21  C          0.64585000       0.37443000       0.97003000
    22  C          0.35415000       0.62557000       0.02997000
    23  H          0.65714900       0.30721300       0.00920900
    24  H          0.34285100       0.69278700      -0.00920900
    25  C          0.74485000       0.41643000       0.95283000
    26  C          0.25515000       0.58357000       0.04717000
    27  H          0.82193800       0.37925200       0.98015700
    28  H          0.17806200       0.62074800       0.01984300
    29  C          0.95234000       0.51293000       0.85023000
    30  C          0.04766000       0.48707000       0.14977000
    31  H          0.96657400       0.45111800       0.84955600
    32  H          0.03342600       0.54888200       0.15044400
    33  C          0.05224000       0.55263000       0.82833000
    34  C          0.94776000       0.44737000       0.17167000
    35  H          0.13504000       0.51756900       0.81413900
    36  H          0.86496000       0.48243100       0.18586100
    37  N          0.83233000       0.55872000       0.87292000
    38  N          0.16767000       0.44128000       0.12708000
    39  N          0.53334000       0.42393000       0.93393000
    40  N          0.46666000       0.57607000       0.06607000
    41  S          0.15932100       0.69861800       0.79482700
    42  S          0.84067900       0.30138200       0.20517300
    43  C          0.48066000       0.14253000       0.37913000
    44  C          0.51934000       0.85747000       0.62087000
    45  C          0.46966000       0.14193000       0.46803000
    46  C          0.53034000       0.85807000       0.53197000
    47  H          0.38752100       0.15355000       0.50048500
    48  H          0.61247900       0.84645000       0.49951500
    49  C          0.57376000       0.12533000       0.50763000
    50  C          0.42624000       0.87467000       0.49237000
    51  H          0.56254100       0.12720600       0.56655500
    52  H          0.43745900       0.87279400       0.43344500
    53  C          0.80136000       0.09253000       0.50933000
    54  C          0.19864000       0.90747000       0.49067000
    55  C          0.79856000       0.04283000       0.60513000
    56  C          0.20144000       0.95717000       0.39487000
    57  H          0.72917100       0.01579300       0.64165200
    58  H          0.27082900       0.98420700       0.35834800
    59  C          0.90185000       0.03433000       0.64533000
    60  C          0.09815000       0.96567000       0.35467000
    61  H          0.90080200       0.00124100       0.71073800
    62  H          0.09919800      -0.00124100       0.28926200
    63  C          0.00244000       0.11603000       0.50473000
    64  C         -0.00244000       0.88397000       0.49527000
    65  H          0.07408000       0.14062000       0.46943200
    66  H          0.92592000       0.85938000       0.53056800
    67  C          0.90366000       0.13013000       0.45753000
    68  C          0.09634000       0.86987000       0.54247000
    69  H          0.90669100       0.16430300       0.39202900
    70  H          0.09330900       0.83569700       0.60797100
    71  C          0.71026000       0.10243000       0.38123000
    72  C          0.28974000       0.89757000       0.61877000
    73  H          0.79406200       0.08736200       0.35206900
    74  H          0.20593800       0.91263800       0.64793100
    75  C          0.60786000       0.12033000       0.33793000
    76  C          0.39214000       0.87967000       0.66207000
    77  H          0.62190500       0.11790300       0.27897400
    78  H          0.37809500       0.88209700       0.72102600
    79  N          0.69397000       0.10582000       0.46572000
    80  N          0.30603000       0.89418000       0.53428000
    81  N          0.00274000       0.07023000       0.59663000
    82  N         -0.00274000       0.92977000       0.40337000
    83  S          0.35042900       0.16971800       0.32598700
    84  S          0.64957100       0.83028200       0.67401300
    85  C          0.33024000       0.25293000       0.83953000
    86  C          0.66976000       0.74707000       0.16047000
    87  C          0.40194000       0.20593000       0.78363000
    88  C          0.59806000       0.79407000       0.21637000
    89  C          0.34454000       0.17403000       0.74033000
    90  C          0.65546000       0.82597000       0.25967000
    91  C          0.21484000       0.18503000       0.75233000
    92  C          0.78516000       0.81497000       0.24767000
    93  C          0.14334000       0.23043000       0.80923000
    94  C          0.85666000       0.76957000       0.19077000
    95  C          0.19964000       0.26333000       0.85273000
    96  C          0.80036000       0.73667000       0.14727000
    97  F          0.52893000       0.19362000       0.76752000
    98  F          0.47107000       0.80638000       0.23248000
    99  F          0.41983000       0.13017190       0.68530180
   100  F          0.58017000       0.86982810       0.31469820
   101  F          0.01552000       0.24552000       0.82322000
   102  F          0.98448000       0.75448000       0.17678000
   103  F          0.12443000       0.30696190       0.90714180
   104  F          0.87557000       0.69303810       0.09285820
   105  I          0.41196300       0.31801200       0.89153200
   106  I          0.58803700       0.68198800       0.10846800
   107  I          0.13179300       0.13342200       0.68699200
   108  I          0.86820700       0.86657800       0.31300800
   109  C          0.90596000       0.08413000       0.97333000
   110  C          0.09404000       0.91587000       0.02667000
   111  C          0.96566000       0.05883000       0.04973000
   112  C          0.03434000       0.94117000       0.95027000
   113  C          0.06014000       0.97327000       0.07573000
   114  C          0.93986000       0.02673000       0.92427000
   115  F          0.81248000       0.16599170       0.94534170
   116  F          0.18752000       0.83400830       0.05465830
   117  F          0.12372000       0.94438820       0.14902160
   118  F          0.87628000       0.05561180       0.85097840
   119  I          0.91800800       0.15031200       0.11971200
   120  I          0.08199200       0.84968800       0.88028800
   121  C          0.40214000       0.00003000       0.96233000
   122  C          0.59786000      -0.00003000       0.03767000
   123  C          0.37784000       0.04293000       0.02403000
   124  C          0.62216000       0.95707000       0.97597000
   125  C          0.47414000       0.04373000       0.06323000
   126  C          0.52586000       0.95627000       0.93677000
   127  F          0.30422000       0.00169190       0.92636170
   128  F          0.69578000      -0.00169190       0.07363830
   129  F          0.25592000       0.08621190       0.04419180
   130  F          0.74408000       0.91378810       0.95580820
   131  I          0.43447200       0.10099200       0.16345200
   132  I          0.56552800       0.89900800       0.83654800
   133  C          0.43334000       0.45383000       0.58103000
   134  C          0.56666000       0.54617000       0.41897000
   135  C          0.43704000       0.54733000       0.55933000
   136  C          0.56296000       0.45267000       0.44067000
   137  C          0.50584000       0.59303000       0.47693000
   138  C          0.49416000       0.40697000       0.52307000
   139  F          0.36773000       0.40580190       0.66105170
   140  F          0.63227000       0.59419810       0.33894830
   141  F          0.51013000       0.68505180       0.45010180
   142  F          0.48987000       0.31494820       0.54989820
   143  I          0.33768200       0.61517200       0.64809200
   144  I          0.66231800       0.38482800       0.35190800
   145  C          0.89154000       0.56923000       0.46633000
   146  C          0.10846000       0.43077000       0.53367000
   147  C          0.93134000       0.56223000       0.54493000
   148  C          0.06866000       0.43777000       0.45507000
   149  C          0.03985000       0.49143000       0.57783000
   150  C          0.96015000       0.50857000       0.42217000
   151  F          0.78543000       0.63472000       0.43212000
   152  F          0.21457000       0.36528000       0.56788000
   153  F          0.08123000       0.48112000       0.65372000
   154  F          0.91877000       0.51888000       0.34628000
   155  I          0.82879300       0.65829200       0.60610200
   156  I          0.17120700       0.34170800       0.39389800
   157  C          0.76455000       0.30234000       0.70884000
   158  C          0.23545000       0.69766000       0.29116000
   159  H          0.69173000       0.27223400       0.74038800
   160  H          0.30827000       0.72776600       0.25961200
   161  H          0.83913300       0.26024800       0.74331500
   162  H          0.16086700       0.73975200       0.25668500
   163  Cl         0.79890160       0.30882130       0.59434110
   164  Cl         0.20109840       0.69117870       0.40565890
   165  Cl         0.72710180       0.41679110       0.71073120
   166  Cl         0.27289820       0.58320890       0.28926880
