data_TAMBUE
_symmetry_space_group_name_H-M    'P1'
_symmetry_Int_Tables_number       1
loop_
_symmetry_equiv_pos_site_id
_symmetry_equiv_pos_as_xyz
1 x,y,z
_cell_length_a                   7.25701
_cell_length_b                   8.7432
_cell_length_c                   14.1842
_cell_angle_alpha                85.4901
_cell_angle_beta                 87.0601
_cell_angle_gamma                74.5901
loop_
_atom_site_label
_atom_site_type_symbol
_atom_site_fract_x
_atom_site_fract_y
_atom_site_fract_z
     1  O          0.12533000       0.29802000       0.51101000
     2  O          0.87467000       0.70198000       0.48899000
     3  O          0.33043000       0.17252000       0.61781000
     4  O          0.66957000       0.82748000       0.38219000
     5  N          0.57453000       0.36782000       0.55951000
     6  N          0.42547000       0.63218000       0.44049000
     7  C          0.26964000       0.28943000       0.55122000
     8  C          0.73036000       0.71057000       0.44878000
     9  C          0.47854000       0.19033000       0.67662000
    10  C          0.52146000       0.80967000       0.32338000
    11  C          0.65014000       0.21933000       0.62082000
    12  C          0.34986000       0.78067000       0.37918000
    13  C          0.38863000       0.40003000       0.52792000
    14  C          0.61137000       0.59997000       0.47208000
    15  C          0.67993000       0.46873000       0.53032000
    16  C          0.32007000       0.53127000       0.46968000
    17  C          0.79054000       0.24414000       0.68982000
    18  C          0.20946000       0.75586000       0.31018000
    19  C          0.74134000       0.08683000       0.55692000
    20  C          0.25866000       0.91317000       0.44308000
    21  H          0.51850000       0.09620000       0.71800000
    22  H          0.48150000       0.90380000       0.28200000
    23  H          0.42640000       0.27850000       0.71490000
    24  H          0.57360000       0.72150000       0.28510000
    25  H          0.80870000       0.44650000       0.55110000
    26  H          0.19130000       0.55350000       0.44890000
    27  H          0.72680000       0.32870000       0.72870000
    28  H          0.27320000       0.67130000       0.27130000
    29  H          0.83680000       0.14820000       0.72900000
    30  H          0.16320000       0.85180000       0.27100000
    31  H          0.89610000       0.27160000       0.65560000
    32  H          0.10390000       0.72840000       0.34440000
    33  H          0.64770000       0.07530000       0.51450000
    34  H          0.35230000       0.92470000       0.48550000
    35  H          0.84630000       0.11240000       0.52110000
    36  H          0.15370000       0.88760000       0.47890000
    37  H          0.78700000      -0.01100000       0.59450000
    38  H          0.21300000       0.01100000       0.40550000
    39  N          0.05015000       0.52837000       0.71082000
    40  N          0.94985000       0.47163000       0.28918000
    41  N          0.75395000       0.94337000       0.86592000
    42  N          0.24605000       0.05663000       0.13408000
    43  N          0.77785000       0.92337000       0.14262000
    44  N          0.22215000       0.07663000       0.85738000
    45  N          0.51485000       0.32266000       0.30932000
    46  N          0.48515000       0.67734000       0.69068000
    47  C          0.81384000       0.53907000       0.93282000
    48  C          0.18616000       0.46093000       0.06718000
    49  C          0.71244000       0.59797000       0.01722000
    50  C          0.28756000       0.40203000       0.98278000
    51  C          0.67234000       0.49807000       0.08742000
    52  C          0.32766000       0.50193000       0.91258000
    53  C          0.72654000       0.32997000       0.08082000
    54  C          0.27346000       0.67003000       0.91918000
    55  C          0.82634000       0.27127000      -0.00368000
    56  C          0.17366000       0.72873000       0.00368000
    57  C          0.86894000       0.37057000       0.92622000
    58  C          0.13106000       0.62943000       0.07378000
    59  C          0.85884000       0.63997000       0.85942000
    60  C          0.14116000       0.36003000       0.14058000
    61  C          0.96335000       0.58026000       0.77602000
    62  C          0.03665000       0.41974000       0.22398000
    63  C          0.80064000       0.80806000       0.86312000
    64  C          0.19936000       0.19194000       0.13688000
    65  C          0.68584000       0.22607000       0.15362000
    66  C          0.31416000       0.77393000       0.84638000
    67  C          0.73844000       0.05826000       0.14682000
    68  C          0.26156000       0.94174000       0.85318000
    69  C          0.59195000       0.27957000       0.24002000
    70  C          0.40805000       0.72043000       0.75998000
    71  H          0.67350000       0.71060000       0.02370000
    72  H          0.32650000       0.28940000       0.97630000
    73  H          0.60500000       0.54040000       0.14360000
    74  H          0.39500000       0.45960000       0.85640000
    75  H          0.86420000       0.15870000       0.98990000
    76  H          0.13580000       0.84130000       0.01010000
    77  H          0.93750000       0.32790000       0.87040000
    78  H          0.06250000       0.67210000       0.12960000
