data_TANNIG
_symmetry_space_group_name_H-M    'P1'
_symmetry_Int_Tables_number       1
loop_
_symmetry_equiv_pos_site_id
_symmetry_equiv_pos_as_xyz
1 x,y,z
_cell_length_a                   16.555612
_cell_length_b                   8.220311
_cell_length_c                   20.1802
_cell_angle_alpha                90.0
_cell_angle_beta                 105.9527
_cell_angle_gamma                90.0
loop_
_atom_site_label
_atom_site_type_symbol
_atom_site_fract_x
_atom_site_fract_y
_atom_site_fract_z
     1  C          0.50628000       0.59131200       0.55654000
     2  C         -0.00628000       0.09131200       0.94346000
     3  C          0.49372000       0.40868800       0.44346000
     4  C          0.00628000       0.90868800       0.05654000
     5  C          0.56556000       0.47411200       0.55624000
     6  C          0.93444000       0.97411200       0.94376000
     7  C          0.43444000       0.52588800       0.44376000
     8  C          0.06556000       0.02588800       0.05624000
     9  H          0.61030000       0.45690000       0.59510000
    10  H          0.88970000       0.95690000       0.90490000
    11  H          0.38970000       0.54310000       0.40490000
    12  H          0.11030000       0.04310000       0.09510000
    13  C          0.44226000       0.61641000       0.50195000
    14  C          0.05774000       0.11641000      -0.00195000
    15  C          0.55774000       0.38359000       0.49805000
    16  C          0.94226000       0.88359000       0.00195000
    17  H          0.40240000       0.69550000       0.50300000
    18  H          0.09760000       0.19550000      -0.00300000
    19  H          0.59760000       0.30450000       0.49700000
    20  H          0.90240000       0.80450000       0.00300000
    21  H          0.51540000       0.64590000       0.59740000
    22  H          0.98460000       0.14590000       0.90260000
    23  H          0.48460000       0.35410000       0.40260000
    24  H          0.01540000       0.85410000       0.09740000
    25  H          0.48540000       0.35590000       0.40340000
    26  H          0.01460000       0.85590000       0.09660000
    27  H          0.51460000       0.64410000       0.59660000
    28  H          0.98540000       0.14410000       0.90340000
    29  H          0.31911900       0.34640000       0.65061600
    30  H          0.18088100       0.84640000       0.84938400
    31  H          0.68088100       0.65360000       0.34938400
    32  H          0.81911900       0.15360000       0.15061600
    33  H          0.38020000       0.48840000       0.64121600
    34  H          0.11980000      -0.01160000       0.85878400
    35  H          0.61980000       0.51160000       0.35878400
    36  H          0.88020000       0.01160000       0.14121600
    37  H          0.03220000       0.47350000       0.89620000
    38  H          0.46780000       0.97350000       0.60380000
    39  H          0.96780000       0.52650000       0.10380000
    40  H          0.53220000       0.02650000       0.39620000
    41  H          0.13020000       0.49140000       0.70621700
    42  H          0.36980000      -0.00860000       0.79378300
    43  H          0.86980000       0.50860000       0.29378300
    44  H          0.63020000       0.00860000       0.20621700
    45  H          0.95878100       0.70240000       0.63881500
    46  H          0.54121900       0.20240000       0.86118500
    47  H          0.04121900       0.29760000       0.36118500
    48  H          0.45878100       0.79760000       0.13881500
    49  H          0.00820000       0.80140000       0.46131800
    50  H          0.49180000       0.30140000       0.03868200
    51  H         -0.00820000       0.19860000       0.53868200
    52  H          0.50820000       0.69860000       0.96131800
    53  H          0.12020000       0.64140000       0.49161900
    54  H          0.37980000       0.14140000       0.00838100
    55  H          0.87980000       0.35860000       0.50838100
    56  H          0.62020000       0.85860000       0.99161900
    57  H          0.42220000       0.43940000       0.78081600
    58  H          0.07780000       0.93940000       0.71918400
    59  H          0.57780000       0.56060000       0.21918400
    60  H          0.92220000       0.06060000       0.28081600
    61  H          0.11991800       0.28340000       0.79801500
    62  H          0.38008200       0.78340000       0.70198500
    63  H          0.88008200       0.71660000       0.20198500
    64  H          0.61991800       0.21660000       0.29801500
    65  H          0.31620000       0.62040000       0.94021800
    66  H          0.18380000       0.12040000       0.55978200
    67  H          0.68380000       0.37960000       0.05978200
    68  H          0.81620000       0.87960000       0.44021800
    69  H          0.34120000       0.62050000       0.83761800
    70  H          0.15880000       0.12050000       0.66238200
    71  H          0.65880000       0.37950000       0.16238200
    72  H          0.84120000       0.87950000       0.33761800
    73  H          0.34720000       0.31650000       0.76241600
    74  H          0.15280000       0.81650000       0.73758400
    75  H          0.65280000       0.68350000       0.23758400
    76  H          0.84720000       0.18350000       0.26241600
    77  H          0.36920000       0.45850000       0.87820000
    78  H          0.13080000       0.95850000       0.62180000
    79  H          0.63080000       0.54150000       0.12180000
    80  H          0.86920000       0.04150000       0.37820000
    81  H          0.25871900       0.49940000       0.54901800
    82  H          0.24128100      -0.00060000       0.95098200
    83  H          0.74128100       0.50060000       0.45098200
    84  H          0.75871900       0.00060000       0.04901800
    85  H          0.25820000       0.64960000       0.59020000
    86  H          0.24180000       0.14960000       0.90980000
    87  H          0.74180000       0.35040000       0.40980000
    88  H          0.75820000       0.85040000       0.09020000
    89  H          0.23620000       0.69050000       0.01420000
    90  H          0.26380000       0.19050000       0.48580000
    91  H          0.76380000       0.30950000       0.98580000
    92  H          0.73620000       0.80950000       0.51420000
    93  H          0.92280000       0.83840000       0.53211800
    94  H          0.57720000       0.33840000       0.96788200
    95  H          0.07720000       0.16160000       0.46788200
    96  H          0.42280000       0.66160000       0.03211800
    97  H          0.09720000       0.63750000       0.98820000
    98  H          0.40280000       0.13750000       0.51180000
    99  H          0.90280000       0.36250000       0.01180000
   100  H          0.59720000       0.86250000       0.48820000
   101  P          0.89980500       0.19250100       0.69402400
   102  P          0.60019500       0.69250100       0.80597600
   103  P          0.10019500       0.80749900       0.30597600
   104  P          0.39980500       0.30749900       0.19402400
   105  P          0.02740400       0.41655900       0.73278400
   106  P          0.47259600       0.91655900       0.76721600
   107  P          0.97259600       0.58344100       0.26721600
   108  P          0.52740400       0.08344100       0.23278400
   109  P          0.86814500       0.48727110       0.74289500
   110  P          0.63185500      -0.01272890       0.75710500
   111  P          0.13185500       0.51272890       0.25710500
   112  P          0.36814500       0.01272890       0.24289500
   113  Cl         0.83687400       0.10488140       0.60228500
   114  Cl         0.66312600       0.60488140       0.89771500
   115  Cl         0.16312600       0.89511860       0.39771500
   116  Cl         0.33687400       0.39511860       0.10228500
   117  Cl         0.78842400       0.64051140       0.68066700
   118  Cl         0.71157600       0.14051140       0.81933300
   119  Cl         0.21157600       0.35948860       0.31933300
   120  Cl         0.28842400       0.85948860       0.18066700
   121  Cl         0.91413400      -0.01052110       0.75046600
   122  Cl         0.58586600       0.48947890       0.74953400
   123  Cl         0.08586600       0.01052110       0.24953400
   124  Cl         0.41413400       0.51052110       0.25046600
   125  Cl         0.84156300       0.52979160       0.83169600
   126  Cl         0.65843700       0.02979160       0.66830400
   127  Cl         0.15843700       0.47020840       0.16830400
   128  Cl         0.34156300       0.97020840       0.33169600
   129  O          0.17898130       0.47753000       0.60583120
   130  O          0.32101870       0.97753000       0.89416880
   131  O          0.82101870       0.52247000       0.39416880
   132  O          0.67898130       0.02247000       0.10583120
   133  N          0.09195160       0.35073000       0.80457130
   134  N          0.40804840       0.85073000       0.69542870
   135  N          0.90804840       0.64927000       0.19542870
   136  N          0.59195160       0.14927000       0.30457130
   137  N          0.96037860       0.54043000       0.74867140
   138  N          0.53962140       0.04043000       0.75132860
   139  N          0.03962140       0.45957000       0.25132860
   140  N          0.46037860       0.95957000       0.24867140
   141  N          0.98683860       0.25813000       0.68910130
   142  N          0.51316140       0.75813000       0.81089870
   143  N          0.01316140       0.74187000       0.31089870
   144  N          0.48683860       0.24187000       0.18910130
   145  C          0.05973170       0.59333000       0.62816140
   146  C          0.44026830       0.09333000       0.87183860
   147  C          0.94026830       0.40667000       0.37183860
   148  C          0.55973170       0.90667000       0.12816140
   149  O          0.32191140       0.53103000       0.71273120
   150  O          0.17808860       0.03103000       0.78726880
   151  O          0.67808860       0.46897000       0.28726880
   152  O          0.82191140       0.96897000       0.21273120
   153  O          0.25338130       0.44703000       0.82437120
   154  O          0.24661870       0.94703000       0.67562880
   155  O          0.74661870       0.55297000       0.17562880
   156  O          0.75338130       0.05297000       0.32437120
   157  C          0.10976180       0.57624000       0.58338150
   158  C          0.39023820       0.07624000       0.91661850
   159  C          0.89023820       0.42376000       0.41661850
   160  C          0.60976180       0.92376000       0.08338150
   161  C          0.13166190       0.45264000       0.86147150
   162  C          0.36833810       0.95264000       0.63852850
   163  C          0.86833810       0.54736000       0.13852850
   164  C          0.63166190       0.04736000       0.36147150
   165  N          0.08644160       0.51723000       0.69330130
   166  N          0.41355840       0.01723000       0.80669870
   167  N          0.91355840       0.48277000       0.30669870
   168  N          0.58644160       0.98277000       0.19330130
   169  N          0.83903830       0.30824000       0.72012170
   170  N          0.66096170       0.80824000       0.77987830
   171  N          0.16096170       0.69176000       0.27987830
   172  N          0.33903830       0.19176000       0.22012170
   173  C          0.36252000       0.43555000       0.77082000
   174  C          0.13748000       0.93555000       0.72918000
   175  C          0.63748000       0.56445000       0.22918000
   176  C          0.86252000       0.06445000       0.27082000
   177  C          0.21592000       0.49754000       0.87315160
   178  C          0.28408000      -0.00246000       0.62684840
   179  C          0.78408000       0.50246000       0.12684840
   180  C          0.71592000       0.00246000       0.37315160
   181  C          0.32542000       0.46245000       0.64862000
   182  C          0.17458000       0.96245000       0.85138000
   183  C          0.67458000       0.53755000       0.35138000
   184  C          0.82542000       0.03755000       0.14862000
   185  C          0.25503000       0.58724000       0.93110190
   186  C          0.24497000       0.08724000       0.56889810
   187  C          0.74497000       0.41276000       0.06889810
   188  C          0.75503000       0.91276000       0.43110190
   189  C          0.01773000       0.74945000       0.50162000
   190  C          0.48227000       0.24945000      -0.00162000
   191  C          0.98227000       0.25055000       0.49838000
   192  C          0.51773000       0.75055000       0.00162000
   193  C          0.96828000       0.76745000       0.54540190
   194  C          0.53172000       0.26745000       0.95459810
   195  C          0.03172000       0.23255000       0.45459810
   196  C          0.46828000       0.73255000       0.04540190
   197  C          0.08803000       0.50615000       0.90627190
   198  C          0.41197000       0.00615000       0.59372810
   199  C          0.91197000       0.49385000       0.09372810
   200  C          0.58803000      -0.00615000       0.40627190
   201  C          0.25592000       0.53095000       0.59322000
   202  C          0.24408000       0.03095000       0.90678000
   203  C          0.74408000       0.46905000       0.40678000
   204  C          0.75592000       0.96905000       0.09322000
   205  C          0.12743000       0.60096000       0.96302000
   206  C          0.37257000       0.10096000       0.53698000
   207  C          0.87257000       0.39904000       0.03698000
   208  C          0.62743000       0.89904000       0.46302000
   209  C          0.21053000       0.63735000       0.97552000
   210  C          0.28947000       0.13735000       0.52448000
   211  C          0.78947000       0.36265000       0.02448000
   212  C          0.71053000       0.86265000       0.47552000
   213  C          0.98868000       0.69024000       0.60871180
   214  C          0.51132000       0.19024000       0.89128820
   215  C          0.01132000       0.30976000       0.39128820
   216  C          0.48868000       0.80976000       0.10871180
   217  C          0.08873000       0.65435000       0.52049180
   218  C          0.41127000       0.15435000       0.97950820
   219  C          0.91127000       0.34565000       0.47950820
   220  C          0.58873000       0.84565000       0.02049180
   221  C          0.33872000       0.49655000       0.83192000
   222  C          0.16128000      -0.00345000       0.66808000
   223  C          0.66128000       0.50345000       0.16808000
   224  C          0.83872000       0.00345000       0.33192000
