data_TAPCEW
_symmetry_space_group_name_H-M    'P1'
_symmetry_Int_Tables_number       1
loop_
_symmetry_equiv_pos_site_id
_symmetry_equiv_pos_as_xyz
1 x,y,z
_cell_length_a                   9.33719
_cell_length_b                   16.243116
_cell_length_c                   11.602911
_cell_angle_alpha                90.0
_cell_angle_beta                 110.2643
_cell_angle_gamma                90.0
loop_
_atom_site_label
_atom_site_type_symbol
_atom_site_fract_x
_atom_site_fract_y
_atom_site_fract_z
     1  C          0.21791130       0.77923700       0.55569110
     2  C          0.28208870       0.27923700       0.94430890
     3  C          0.78208870       0.22076300       0.44430890
     4  C          0.71791130       0.72076300       0.05569110
     5  C          0.33658140       0.73051700       0.63384110
     6  C          0.16341860       0.23051700       0.86615890
     7  C          0.66341860       0.26948300       0.36615890
     8  C          0.83658140       0.76948300       0.13384110
     9  H          0.32907400       0.70970100       0.70805100
    10  H          0.17092600       0.20970100       0.79194900
    11  H          0.67092600       0.29029900       0.29194900
    12  H          0.82907400       0.79029900       0.20805100
    13  C          0.46347140       0.71271700       0.60375110
    14  C          0.03652860       0.21271700       0.89624890
    15  C          0.53652860       0.28728300       0.39624890
    16  C          0.96347140       0.78728300       0.10375110
    17  H          0.54296400       0.67971900       0.65703000
    18  H          0.95703600       0.17971900       0.84297000
    19  H          0.45703600       0.32028100       0.34297000
    20  H          0.04296400       0.82028100       0.15703000
    21  C          0.47520120       0.74320700       0.49486100
    22  C          0.02479880       0.24320700       0.00513900
    23  C          0.52479880       0.25679300       0.50513900
    24  C          0.97520120       0.75679300      -0.00513900
    25  C          0.35834140       0.79109800       0.41605110
    26  C          0.14165860       0.29109800       0.08394890
    27  C          0.64165860       0.20890200       0.58394890
    28  C          0.85834140       0.70890200       0.91605110
    29  H          0.36603400       0.81120100       0.34152700
    30  H          0.13396600       0.31120100       0.15847300
    31  H          0.63396600       0.18879900       0.65847300
    32  H          0.86603400       0.68879900       0.84152700
    33  C          0.23118130       0.80931800       0.44640110
    34  C          0.26881870       0.30931800       0.05359890
    35  C          0.76881870       0.19068200       0.55359890
    36  C          0.73118130       0.69068200       0.94640110
    37  H          0.15214800       0.84244700       0.39288100
    38  H          0.34785200       0.34244700       0.10711900
    39  H          0.84785200       0.15755300       0.60711900
    40  H          0.65214800       0.65755300       0.89288100
    41  C          0.52014120       0.57800700       0.35392100
    42  C         -0.02014120       0.07800700       0.14607900
    43  C          0.47985880       0.42199300       0.64607900
    44  C          0.02014120       0.92199300       0.85392100
    45  C          0.39300130       0.60912700       0.25617110
    46  C          0.10699870       0.10912700       0.24382890
    47  C          0.60699870       0.39087300       0.74382890
    48  C          0.89300130       0.89087300       0.75617110
    49  H          0.36740600       0.66492400       0.23393400
    50  H          0.13259400       0.16492400       0.26606600
    51  H          0.63259400       0.33507600       0.76606600
    52  H          0.86740600       0.83507600       0.73393400
    53  C          0.31756130       0.54100800       0.20266110
    54  C          0.18243870       0.04100800       0.29733890
    55  C          0.68243870       0.45899200       0.79733890
    56  C          0.81756130       0.95899200       0.70266110
    57  C          0.17361150       0.52790900       0.09745130
    58  C          0.32638850       0.02790900       0.40254870
    59  C          0.82638850       0.47209100       0.90254870
    60  C          0.67361150       0.97209100       0.59745130
    61  H          0.09763900       0.50222300       0.12679300
    62  H          0.40236100       0.00222300       0.37320700
    63  H          0.90236100       0.49777700       0.87320700
    64  H          0.59763900      -0.00222300       0.62679300
    65  H          0.19337800       0.49184600       0.03690600
    66  H          0.30662200      -0.00815400       0.46309400
    67  H          0.80662200       0.50815400       0.96309400
    68  H          0.69337800       0.00815400       0.53690600
    69  H          0.13483100       0.58099900       0.05922700
    70  H          0.36516900       0.08099900       0.44077300
    71  H          0.86516900       0.41900100       0.94077300
    72  H          0.63483100       0.91900100       0.55922700
    73  N          0.09347130       0.79799900       0.58620120
    74  N          0.40652870       0.29799900       0.91379880
    75  N          0.90652870       0.20200100       0.41379880
    76  N          0.59347130       0.70200100       0.08620120
    77  N          0.63748110       0.62094600       0.43969100
    78  N          0.86251890       0.12094600       0.06030900
    79  N          0.36251890       0.37905400       0.56030900
    80  N          0.13748110       0.87905400       0.93969100
    81  N          0.52241120       0.49749700       0.35923100
    82  N          0.97758880      -0.00250300       0.14076900
    83  N          0.47758880       0.50250300       0.64076900
    84  N          0.02241120       0.00250300       0.85923100
    85  O          0.62030110       0.76010600       0.34449900
    86  O          0.87969890       0.26010600       0.15550100
    87  O          0.37969890       0.23989400       0.65550100
    88  O          0.12030110       0.73989400       0.84449900
    89  O          0.77235100       0.73438600       0.56311900
    90  O          0.72764900       0.23438600       0.93688100
    91  O          0.22764900       0.26561400       0.43688100
    92  O          0.27235100       0.76561400       0.06311900
    93  O          0.39037110       0.47308500       0.26064800
    94  O          0.10962890       0.97308500       0.23935200
    95  O          0.60962890       0.52691500       0.73935200
    96  O          0.89037110       0.02691500       0.76064800
    97  S          0.63693300       0.71983200       0.45883300
    98  S          0.86306700       0.21983200       0.04116700
    99  S          0.36306700       0.28016800       0.54116700
   100  S          0.13693300       0.78016800       0.95883300
   101  H          0.08520000       0.77651100       0.65031700
   102  H          0.41480000       0.27651100       0.84968300
   103  H          0.91480000       0.22348900       0.34968300
   104  H          0.58520000       0.72348900       0.15031700
   105  H          0.02020000       0.82511100       0.53561600
   106  H          0.47980000       0.32511100       0.96438400
   107  H         -0.02020000       0.17488900       0.46438400
   108  H          0.52020000       0.67488900       0.03561600
   109  H          0.71020000       0.59341200       0.49811700
   110  H          0.78980000       0.09341200       0.00188300
   111  H          0.28980000       0.40658800       0.50188300
   112  H          0.21020000       0.90658800      -0.00188300
   113  C          0.00732140       0.56066800       0.67657120
   114  C          0.49267860       0.06066800       0.82342880
   115  C         -0.00732140       0.43933200       0.32342880
   116  C          0.50732140       0.93933200       0.17657120
   117  H          0.01218300       0.61855800       0.68895200
   118  H          0.48781700       0.11855800       0.81104800
   119  H         -0.01218300       0.38144200       0.31104800
   120  H          0.51218300       0.88144200       0.18895200
   121  C          0.13525130       0.51338800       0.73769110
   122  C          0.36474870       0.01338800       0.76230890
   123  C          0.86474870       0.48661200       0.26230890
   124  C          0.63525130       0.98661200       0.23769110
   125  C          0.12991150       0.42909900       0.71937130
   126  C          0.37008850       0.92909900       0.78062870
   127  C          0.87008850       0.57090100       0.28062870
   128  C          0.62991150       0.07090100       0.21937130
   129  H          0.21612000       0.39549100       0.75938600
   130  H          0.28388000       0.89549100       0.74061400
   131  H          0.78388000       0.60450900       0.24061400
   132  H          0.71612000       0.10450900       0.25938600
   133  C         -0.00428830       0.39518900       0.64125140
   134  C          0.50428830       0.89518900       0.85874860
   135  C          0.00428830       0.60481100       0.35874860
   136  C          0.49571170       0.10481100       0.14125140
   137  H         -0.01220400       0.33749800       0.62690100
   138  H          0.51220400       0.83749800       0.87309900
   139  H          0.01220400       0.66250200       0.37309900
   140  H          0.48779600       0.16250200       0.12690100
   141  C          0.87278150       0.44633900       0.58408120
   142  C          0.62721850       0.94633900       0.91591880
   143  C          0.12721850       0.55366100       0.41591880
   144  C          0.37278150       0.05366100       0.08408120
   145  H          0.78095200       0.42248300       0.53049000
   146  H          0.71904800       0.92248300       0.96951000
   147  H          0.21904800       0.57751700       0.46951000
   148  H          0.28095200       0.07751700       0.03049000
   149  C          0.27077150       0.55229900       0.82066120
   150  C          0.22922850       0.05229900       0.67933880
   151  C          0.72922850       0.44770100       0.17933880
   152  C          0.77077150       0.94770100       0.32066120
   153  N          0.87796120       0.52764700       0.60115100
   154  N          0.62203880       0.02764700       0.89884900
   155  N          0.12203880       0.47235300       0.39884900
   156  N          0.37796120       0.97235300       0.10115100
   157  N          0.37609140       0.58328900       0.88806120
   158  N          0.12390860       0.08328900       0.61193880
   159  N          0.62390860       0.41671100       0.11193880
   160  N          0.87609140       0.91671100       0.38806120
