data_TAPDOF
_symmetry_space_group_name_H-M    'P1'
_symmetry_Int_Tables_number       1
loop_
_symmetry_equiv_pos_site_id
_symmetry_equiv_pos_as_xyz
1 x,y,z
_cell_length_a                   7.69688
_cell_length_b                   9.09989
_cell_length_c                   21.1122
_cell_angle_alpha                82.0411
_cell_angle_beta                 86.5461
_cell_angle_gamma                79.8831
loop_
_atom_site_label
_atom_site_type_symbol
_atom_site_fract_x
_atom_site_fract_y
_atom_site_fract_z
     1  N          0.83452170       0.14659140       0.86859400
     2  N          0.16547830       0.85340860       0.13140600
     3  O          0.00573140       0.94381120       0.92248500
     4  O         -0.00573140       0.05618880       0.07751500
     5  C          0.86212000       0.03009170       0.91510300
     6  C          0.13788000       0.96990830       0.08489700
     7  C          0.69472000       0.02176170       0.95510300
     8  C          0.30528000       0.97823830       0.04489700
     9  H          0.71590000       0.02090000       0.00100000
    10  H          0.28410000       0.97910000      -0.00100000
    11  H          0.64710000       0.93000000       0.94990000
    12  H          0.35290000       0.07000000       0.05010000
    13  C          0.56702000       0.16406190       0.92965200
    14  C          0.43298000       0.83593810       0.07034800
    15  H          0.55390000       0.24000000       0.95970000
    16  H          0.44610000       0.76000000       0.04030000
    17  H          0.44920000       0.13980000       0.92350000
    18  H          0.55080000       0.86020000       0.07650000
    19  C          0.65152000       0.22253170       0.86541200
    20  C          0.34848000       0.77746830       0.13458800
    21  H          0.59330000       0.19590000       0.82910000
    22  H          0.40670000       0.80410000       0.17090000
    23  H          0.64410000       0.33320000       0.86080000
    24  H          0.35590000       0.66680000       0.13920000
    25  C          0.96422000       0.18046180       0.81855300
    26  C          0.03578000       0.81953820       0.18144700
    27  H          0.08250000       0.13360000       0.83260000
    28  H          0.91750000       0.86640000       0.16740000
    29  H          0.95830000       0.28980000       0.80940000
    30  H          0.04170000       0.71020000       0.19060000
    31  H          0.93970000       0.14100000       0.77970000
    32  H          0.06030000       0.85900000       0.22030000
    33  N          0.36918190       0.77564840       0.57077700
    34  N          0.63081810       0.22435160       0.42922300
    35  H          0.29540000       0.88660000       0.53411600
    36  H          0.70460000       0.11340000       0.46588400
    37  C          0.43372000       0.79708000       0.62653800
    38  C          0.56628000       0.20292000       0.37346200
    39  C          0.51352000       0.67538000       0.66627900
    40  C          0.48648000       0.32462000       0.33372100
    41  H          0.55810000       0.69060000       0.70540000
    42  H          0.44190000       0.30940000       0.29460000
    43  C          0.53052000       0.52968000       0.65058900
    44  C          0.46948000       0.47032000       0.34941100
    45  C          0.46353000       0.51198000       0.59341900
    46  C          0.53647000       0.48802000       0.40658100
    47  H          0.47280000       0.41460000       0.58080000
    48  H          0.52720000       0.58540000       0.41920000
    49  C          0.38172000       0.63918000       0.55428800
    50  C          0.61828000       0.36082000       0.44571200
    51  H          0.33430000       0.62720000       0.51520000
    52  H          0.66570000       0.37280000       0.48480000
    53  C          0.40993000       0.95498000       0.64074900
    54  C          0.59007000       0.04502000       0.35925100
    55  H          0.29770000       0.97880000       0.66470000
    56  H          0.70230000       0.02120000       0.33530000
    57  H          0.40890000       0.02340000       0.60050000
    58  H          0.59110000       0.97660000       0.39950000
    59  H          0.50730000       0.96690000       0.66640000
    60  H          0.49270000       0.03310000       0.33360000
    61  C          0.61613000       0.39778000       0.69467100
    62  C          0.38387000       0.60222000       0.30532900
    63  H          0.62980000       0.30680000       0.67360000
    64  H          0.37020000       0.69320000       0.32640000
    65  H          0.54220000       0.38530000       0.73390000
    66  H          0.45780000       0.61470000       0.26610000
    67  H          0.73240000       0.41470000       0.70550000
    68  H          0.26760000       0.58530000       0.29450000
    69  O          0.07436150      -0.00648120       0.31877500
    70  O          0.92563850       0.00648120       0.68122500
    71  H          0.11930000       0.92770000       0.35451200
    72  H          0.88070000       0.07230000       0.64548800
    73  C          0.06000190       0.13025170       0.33992700
    74  C          0.93999810       0.86974830       0.66007300
    75  C          0.11452000       0.13647170       0.40303700
    76  C          0.88548000       0.86352830       0.59696300
    77  C          0.10102000       0.27293180       0.42493700
    78  C          0.89898000       0.72706820       0.57506300
    79  H          0.14240000       0.27710000       0.46600000
    80  H          0.85760000       0.72290000       0.53400000
    81  C          0.02652000       0.40785170       0.38745700
    82  C          0.97348000       0.59214830       0.61254300
    83  C          0.00422000       0.54853180       0.41138800
    84  C         -0.00422000       0.45146820       0.58861200
    85  H          0.05010000       0.55360000       0.45160000
    86  H          0.94990000       0.44640000       0.54840000
    87  C          0.91762000       0.67693180       0.37750800
    88  C          0.08238000       0.32306820       0.62249200
    89  H          0.90080000       0.76990000       0.39450000
    90  H          0.09920000       0.23010000       0.60550000
    91  C          0.85382000       0.66955180       0.31711800
    92  C          0.14618000       0.33044820       0.68288200
    93  H          0.79120000       0.75800000       0.29400000
    94  H          0.20880000       0.24200000       0.70600000
    95  C          0.88032000       0.53673170       0.29097700
    96  C          0.11968000       0.46326830       0.70902300
    97  H          0.83930000       0.53580000       0.24950000
    98  H          0.16070000       0.46420000       0.75050000
    99  C          0.96845190       0.40047170       0.32512700
   100  C          0.03154810       0.59952830       0.67487300
   101  C         -0.00604810       0.25968170       0.29997700
   102  C          0.00604810       0.74031830       0.70002300
   103  C          0.18992000      -0.00515180       0.44485800
   104  C          0.81008000       0.00515180       0.55514200
   105  O          0.21051160       0.87112870       0.42319600
   106  O          0.78948840       0.12887130       0.57680400
   107  O          0.23024170       0.01078140       0.50093600
   108  O          0.76975830      -0.01078140       0.49906400
   109  C          0.94247190       0.25089160       0.23190700
   110  C          0.05752810       0.74910840       0.76809300
   111  H          0.95010000       0.14350000       0.22660000
   112  H          0.04990000       0.85650000       0.77340000
   113  H          0.81760000       0.29940000       0.22700000
   114  H          0.18240000       0.70060000       0.77300000
   115  C          0.05382190       0.32383160       0.17810700
   116  C          0.94617810       0.67616840       0.82189300
   117  O          0.80248140       0.50251130       0.14419500
   118  O          0.19751860       0.49748870       0.85580500
   119  H          0.78130000       0.58130000       0.11041200
   120  H          0.21870000       0.41870000       0.88958800
   121  C          0.97736190       0.44677170       0.13648700
   122  C          0.02263810       0.55322830       0.86351300
   123  C          0.07952190       0.51660160       0.08544700
   124  C          0.92047810       0.48339840       0.91455300
   125  C          0.25482000       0.46009170       0.07677700
   126  C          0.74518000       0.53990830       0.92322300
   127  H          0.32170000       0.50720000       0.04310000
   128  H          0.67830000       0.49280000       0.95690000
   129  C          0.33804190       0.33393170       0.11656700
   130  C          0.66195810       0.66606830       0.88343300
   131  C          0.52002000       0.27485180       0.10665700
   132  C          0.47998000       0.72514820       0.89334300
   133  H          0.58750000       0.32430000       0.07390000
   134  H          0.41250000       0.67570000       0.92610000
   135  C          0.59902000       0.14838180       0.14343800
   136  C          0.40098000       0.85161820       0.85656200
   137  H          0.72060000       0.11010000       0.13650000
   138  H          0.27940000       0.88990000       0.86350000
   139  C          0.49792000       0.07509180       0.19184700
   140  C          0.50208000       0.92490820       0.80815300
   141  H          0.55230000       0.98580000       0.21680000
   142  H          0.44770000       0.01420000       0.78320000
   143  C          0.32242000       0.12984170       0.20374700
   144  C          0.67758000       0.87015830       0.79625300
   145  H          0.25820000       0.07820000       0.23680000
   146  H          0.74180000       0.92180000       0.76320000
   147  C          0.23584190       0.26311160       0.16707700
   148  C          0.76415810       0.73688840       0.83292300
   149  C         -0.00508000       0.65118170       0.04269700
   150  C          0.00508000       0.34881830       0.95730300
   151  O          0.83902150       0.70670130       0.04912500
   152  O          0.16097850       0.29329870       0.95087500
   153  O          0.10259140       0.70545130      -0.00181500
   154  O          0.89740860       0.29454870       0.00181500
   155  H          0.03740000       0.79840000       0.96968400
   156  H          0.96260000       0.20160000       0.03031600
