data_TAPGAW
_symmetry_space_group_name_H-M    'P1'
_symmetry_Int_Tables_number       1
loop_
_symmetry_equiv_pos_site_id
_symmetry_equiv_pos_as_xyz
1 x,y,z
_cell_length_a                   10.90194
_cell_length_b                   14.80666
_cell_length_c                   12.48505
_cell_angle_alpha                90.0
_cell_angle_beta                 91.62801
_cell_angle_gamma                90.0
loop_
_atom_site_label
_atom_site_type_symbol
_atom_site_fract_x
_atom_site_fract_y
_atom_site_fract_z
     1  C          0.80188100       0.43943700       0.42279900
     2  C          0.19811900       0.93943700       0.07720100
     3  C          0.19811900       0.56056300       0.57720100
     4  C          0.80188100       0.06056300       0.92279900
     5  C          0.68703100       0.47305800       0.39009900
     6  C          0.31296900       0.97305800       0.10990100
     7  C          0.31296900       0.52694200       0.60990100
     8  C          0.68703100       0.02694200       0.89009900
     9  H          0.61731800       0.46198300       0.43212300
    10  H          0.38268200       0.96198300       0.06787700
    11  H          0.38268200       0.53801700       0.56787700
    12  H          0.61731800       0.03801700       0.93212300
    13  C          0.67513100       0.52250800       0.29630900
    14  C          0.32486900       0.02250800       0.20369100
    15  C          0.32486900       0.47749200       0.70369100
    16  C          0.67513100       0.97749200       0.79630900
    17  H          0.59730100       0.54556400       0.27370600
    18  H          0.40269900       0.04556400       0.22629400
    19  H          0.40269900       0.45443600       0.72629400
    20  H          0.59730100       0.95443600       0.77370600
    21  C          0.77815100       0.53830700       0.23510800
    22  C          0.22184900       0.03830700       0.26489200
    23  C          0.22184900       0.46169300       0.76489200
    24  C          0.77815100       0.96169300       0.73510800
    25  C          0.89277100       0.50533800       0.26712900
    26  C          0.10722900       0.00533800       0.23287100
    27  C          0.10722900       0.49466200       0.73287100
    28  C          0.89277100      -0.00533800       0.76712900
    29  H          0.96233100       0.51637700       0.22489300
    30  H          0.03766900       0.01637700       0.27510700
    31  H          0.03766900       0.48362300       0.77510700
    32  H          0.96233100       0.98362300       0.72489300
    33  C          0.90455100       0.45605800       0.36155900
    34  C          0.09544900       0.95605800       0.13844100
    35  C          0.09544900       0.54394200       0.63844100
    36  C          0.90455100       0.04394200       0.86155900
    37  H          0.98262500       0.43363900       0.38445000
    38  H          0.01737500       0.93363900       0.11555000
    39  H          0.01737500       0.56636100       0.61555000
    40  H          0.98262500       0.06636100       0.88445000
    41  C          0.69102100       0.47283700       0.97990100
    42  C          0.30897900       0.97283700       0.52009900
    43  C          0.30897900       0.52716300       0.02009900
    44  C          0.69102100       0.02716300       0.47990100
    45  C          0.80562110       0.43385800       0.95491100
    46  C          0.19437890       0.93385800       0.54508900
    47  C          0.19437890       0.56614200       0.04508900
    48  C          0.80562110       0.06614200       0.45491100
    49  H          0.88528500       0.45274000       0.97817000
    50  H          0.11471500       0.95274000       0.52183000
    51  H          0.11471500       0.54726000       0.02183000
    52  H          0.88528500       0.04726000       0.47817000
    53  C          0.77521110       0.36380800       0.89053900
    54  C          0.22478890       0.86380800       0.60946100
    55  C          0.22478890       0.63619200       0.10946100
    56  C          0.77521110       0.13619200       0.39053900
    57  C          0.84852130       0.29646900       0.83176880
    58  C          0.15147870       0.79646900       0.66823120
    59  C          0.15147870       0.70353100       0.16823120
    60  C          0.84852130       0.20353100       0.33176880
    61  H          0.80781500       0.23750500       0.83403300
    62  H          0.19218500       0.73750500       0.66596700
    63  H          0.19218500       0.76249500       0.16596700
    64  H          0.80781500       0.26249500       0.33403300
    65  H          0.93059000       0.29178400       0.86540500
    66  H          0.06941000       0.79178400       0.63459500
    67  H          0.06941000       0.70821600       0.13459500
    68  H          0.93059000       0.20821600       0.36540500
    69  H          0.85553300       0.31564600       0.75706600
    70  H          0.14446700       0.81564600       0.74293400
    71  H          0.14446700       0.68435400       0.24293400
    72  H          0.85553300       0.18435400       0.25706600
    73  N          0.81426100       0.39196700       0.52062800
    74  N          0.18573900       0.89196700       0.97937200
    75  N          0.18573900       0.60803300       0.47937200
    76  N          0.81426100       0.10803300       0.02062800
    77  N          0.66445900       0.54973700       0.03842800
    78  N          0.33554100       0.04973700       0.46157200
    79  N          0.33554100       0.45026300       0.96157200
    80  N          0.66445900       0.95026300       0.53842800
    81  N          0.59860100       0.42898800       0.93513900
    82  N          0.40139900       0.92898800       0.56486100
    83  N          0.40139900       0.57101200       0.06486100
    84  N          0.59860100       0.07101200       0.43513900
    85  O          0.69694900       0.68469600       0.14410700
    86  O          0.30305100       0.18469600       0.35589300
    87  O          0.30305100       0.31530400       0.85589300
    88  O          0.69694900       0.81530400       0.64410700
    89  O          0.87713800       0.60754600       0.06797700
    90  O          0.12286200       0.10754600       0.43202300
    91  O          0.12286200       0.39245400       0.93202300
    92  O          0.87713800       0.89245400       0.56797700
    93  O          0.65227800       0.35846600       0.87658200
    94  O          0.34772200       0.85846600       0.62341800
    95  O          0.34772200       0.64153400       0.12341800
    96  O          0.65227800       0.14153400       0.37658200
    97  S          0.76092200       0.60340200       0.11858200
    98  S          0.23907800       0.10340200       0.38141800
    99  S          0.23907800       0.39659800       0.88141800
   100  S          0.76092200       0.89659800       0.61858200
   101  H          0.88151700       0.35741200       0.52691400
   102  H          0.11848300       0.85741200       0.97308600
   103  H          0.11848300       0.64258800       0.47308600
   104  H          0.88151700       0.14258800       0.02691400
   105  H          0.74931700       0.35901200       0.53211400
   106  H          0.25068300       0.85901200       0.96788600
   107  H          0.25068300       0.64098800       0.46788600
   108  H          0.74931700       0.14098800       0.03211400
   109  H          0.59011600       0.56081200       0.04891400
   110  H          0.40988400       0.06081200       0.45108600
   111  H          0.40988400       0.43918800       0.95108600
   112  H          0.59011600       0.93918800       0.54891400
   113  C          0.68859100       0.62187800       0.76605900
   114  C          0.31140900       0.12187800       0.73394100
   115  C          0.31140900       0.37812200       0.23394100
   116  C          0.68859100       0.87812200       0.26605900
   117  C          0.57288100       0.65249800       0.79352900
   118  C          0.42711900       0.15249800       0.70647100
   119  C          0.42711900       0.34750200       0.20647100
   120  C          0.57288100       0.84750200       0.29352900
   121  H          0.50070900       0.62589200       0.76297100
   122  H          0.49929100       0.12589200       0.73702900
   123  H          0.49929100       0.37410800       0.23702900
   124  H          0.50070900       0.87410800       0.26297100
   125  C          0.56554110       0.72241800       0.86620100
   126  C          0.43445890       0.22241800       0.63379900
   127  C          0.43445890       0.27758200       0.13379900
   128  C          0.56554110       0.77758200       0.36620100
   129  C          0.66731120       0.76471800       0.91194100
   130  C          0.33268880       0.26471800       0.58805900
   131  C          0.33268880       0.23528200       0.08805900
   132  C          0.66731120       0.73528200       0.41194100
   133  H          0.66009700       0.81278300       0.96176300
   134  H          0.33990300       0.31278300       0.53823700
   135  H          0.33990300       0.18721700       0.03823700
   136  H          0.66009700       0.68721700       0.46176300
   137  C          0.77985110       0.73302800       0.88101900
   138  C          0.22014890       0.23302800       0.61898100
   139  C          0.22014890       0.26697200       0.11898100
   140  C          0.77985110       0.76697200       0.38101900
   141  C          0.79359100       0.66239800       0.80990900
   142  C          0.20640900       0.16239800       0.69009100
   143  C          0.20640900       0.33760200       0.19009100
   144  C          0.79359100       0.83760200       0.30990900
   145  H          0.87287000       0.64202200       0.79143700
   146  H          0.12713000       0.14202200       0.70856300
   147  H          0.12713000       0.35797800       0.20856300
   148  H          0.87287000       0.85797800       0.29143700
   149  C          0.69653100       0.54502900       0.68893100
   150  C          0.30346900       0.04502900       0.81106900
   151  C          0.30346900       0.45497100       0.31106900
   152  C          0.69653100       0.95497100       0.18893100
   153  N          0.89026110       0.77584800       0.92786900
   154  N          0.10973890       0.27584800       0.57213100
   155  N          0.10973890       0.22415200       0.07213100
   156  N          0.89026110       0.72415200       0.42786900
   157  N          0.44380110       0.75315800       0.89848100
   158  N          0.55619890       0.25315800       0.60151900
   159  N          0.55619890       0.24684200       0.10151900
   160  N          0.44380110       0.74684200       0.39848100
   161  O          0.80953800       0.51596700       0.67725700
   162  O          0.19046200       0.01596700       0.82274300
   163  O          0.19046200       0.48403300       0.32274300
   164  O          0.80953800       0.98403300       0.17725700
   165  O          0.60772900       0.51348900       0.64322100
   166  O          0.39227100       0.01348900       0.85677900
   167  O          0.39227100       0.48651100       0.35677900
   168  O          0.60772900       0.98651100       0.14322100
   169  O         -0.00960900       0.75116900       0.89607100
   170  O          0.00960900       0.25116900       0.60392900
   171  O          0.00960900       0.24883100       0.10392900
   172  O         -0.00960900       0.74883100       0.39607100
   173  O          0.87725120       0.83382800      -0.00359900
   174  O          0.12274880       0.33382800       0.50359900
   175  O          0.12274880       0.16617200       0.00359900
   176  O          0.87725120       0.66617200       0.49640100
   177  O          0.44047120       0.81206900       0.96750130
   178  O          0.55952880       0.31206900       0.53249870
   179  O          0.55952880       0.18793100       0.03249870
   180  O          0.44047120       0.68793100       0.46750130
   181  O          0.35292100       0.71770900       0.85755100
   182  O          0.64707900       0.21770900       0.64244900
   183  O          0.64707900       0.28229100       0.14244900
   184  O          0.35292100       0.78229100       0.35755100
   185  H          0.80721900       0.47061400       0.62371700
   186  H          0.19278100       0.97061400       0.87628300
   187  H          0.19278100       0.52938600       0.37628300
   188  H          0.80721900       0.02938600       0.12371700
