data_TARLAA
_symmetry_space_group_name_H-M    'P1'
_symmetry_Int_Tables_number       1
loop_
_symmetry_equiv_pos_site_id
_symmetry_equiv_pos_as_xyz
1 x,y,z
_cell_length_a                   7.18707
_cell_length_b                   7.48908
_cell_length_c                   8.36377
_cell_angle_alpha                63.7837
_cell_angle_beta                 67.4101
_cell_angle_gamma                64.9337
loop_
_atom_site_label
_atom_site_type_symbol
_atom_site_fract_x
_atom_site_fract_y
_atom_site_fract_z
     1  S          0.76840600       0.05042500       0.25346400
     2  S          0.23159400       0.94957500       0.74653600
     3  C          0.66532000       0.91514180       0.20978160
     4  C          0.33468000       0.08485820       0.79021840
     5  N          0.74732000       0.86692000       0.05632160
     6  N          0.25268000       0.13308000       0.94367840
     7  N          0.49862000       0.85422000       0.32720190
     8  N          0.50138000       0.14578000       0.67279810
     9  H          0.85030000       0.90330000       0.98070000
    10  H          0.14970000       0.09670000       0.01930000
    11  H          0.69730000       0.78930000       0.04220000
    12  H          0.30270000       0.21070000       0.95780000
    13  H          0.45340000       0.77340000       0.31430000
    14  H          0.54660000       0.22660000       0.68570000
    15  H          0.44640000       0.87830000       0.42330000
    16  H          0.55360000       0.12170000       0.57670000
    17  O          0.27527150       0.42447140       0.13652110
    18  O          0.72472850       0.57552860       0.86347890
    19  O          0.43367190       0.60272170       0.17301140
    20  O          0.56632810       0.39727830       0.82698860
    21  C          0.42122000       0.51283170       0.08975150
    22  C          0.57878000       0.48716830       0.91024850
    23  C          0.96507000       0.33243000       0.33783000
    24  C          0.03493000       0.66757000       0.66217000
    25  C          0.11882000       0.43702000       0.30871180
    26  C          0.88118000       0.56298000       0.69128820
    27  H          0.89660000       0.40240000       0.22830000
    28  H          0.10340000       0.59760000       0.77170000
    29  H          0.03330000       0.19540000       0.35130000
    30  H          0.96670000       0.80460000       0.64870000
    31  H          0.86950000       0.35240000       0.45130000
    32  H          0.13050000       0.64760000       0.54870000
    33  H          0.04930000       0.58130000       0.29220000
    34  H          0.95070000       0.41870000       0.70780000
    35  H          0.19730000       0.35830000       0.40420000
    36  H          0.80270000       0.64170000       0.59580000
