data_TAVZOI03
_symmetry_space_group_name_H-M    'P1'
_symmetry_Int_Tables_number       1
loop_
_symmetry_equiv_pos_site_id
_symmetry_equiv_pos_as_xyz
1 x,y,z
_cell_length_a                   20.0885
_cell_length_b                   5.224212
_cell_length_c                   25.0336
_cell_angle_alpha                90.0
_cell_angle_beta                 92.30816
_cell_angle_gamma                90.0
loop_
_atom_site_label
_atom_site_type_symbol
_atom_site_fract_x
_atom_site_fract_y
_atom_site_fract_z
     1  O          0.00104500       0.24472190       0.54425400
     2  O          0.49895500       0.24472190       0.45574600
     3  O          0.50104500       0.74472190       0.04425400
     4  O         -0.00104500       0.74472190       0.95574600
     5  O         -0.00104500       0.75527810       0.45574600
     6  O          0.50104500       0.75527810       0.54425400
     7  O          0.49895500       0.25527810       0.95574600
     8  O          0.00104500       0.25527810       0.04425400
     9  N          0.83838600       0.59762000       0.60185500
    10  N          0.66161400       0.59762000       0.39814500
    11  N          0.33838600       0.09762000       0.10185500
    12  N          0.16161400       0.09762000       0.89814500
    13  N          0.16161400       0.40238000       0.39814500
    14  N          0.33838600       0.40238000       0.60185500
    15  N          0.66161400       0.90238000       0.89814500
    16  N          0.83838600       0.90238000       0.10185500
    17  N          0.91602600       0.33482000       0.48566500
    18  N          0.58397400       0.33482000       0.51433500
    19  N          0.41602600       0.83482000       0.98566500
    20  N          0.08397400       0.83482000       0.01433500
    21  N          0.08397400       0.66518000       0.51433500
    22  N          0.41602600       0.66518000       0.48566500
    23  N          0.58397400       0.16518000       0.01433500
    24  N          0.91602600       0.16518000       0.98566500
    25  H          0.93949000       0.46530000       0.47307000
    26  H          0.56051000       0.46530000       0.52693000
    27  H          0.43949000       0.96530000       0.97307000
    28  H          0.06051000       0.96530000       0.02693000
    29  H          0.06051000       0.53470000       0.52693000
    30  H          0.43949000       0.53470000       0.47307000
    31  H          0.56051000       0.03470000       0.02693000
    32  H          0.93949000       0.03470000       0.97307000
    33  H          0.87531000       0.29530000       0.46847000
    34  H          0.62469000       0.29530000       0.53153000
    35  H          0.37531000       0.79530000       0.96847000
    36  H          0.12469000       0.79530000       0.03153000
    37  H          0.12469000       0.70470000       0.53153000
    38  H          0.37531000       0.70470000       0.46847000
    39  H          0.62469000       0.20470000       0.03153000
    40  H          0.87531000       0.20470000       0.96847000
    41  C          0.93735700       0.83923000       0.58907600
    42  C          0.56264300       0.83923000       0.41092400
    43  C          0.43735700       0.33923000       0.08907600
    44  C          0.06264300       0.33923000       0.91092400
    45  C          0.06264300       0.16077000       0.41092400
    46  C          0.43735700       0.16077000       0.58907600
    47  C          0.56264300       0.66077000       0.91092400
    48  C          0.93735700       0.66077000       0.08907600
    49  H          0.98290000       0.86930000       0.59880000
    50  H          0.51710000       0.86930000       0.40120000
    51  H          0.48290000       0.36930000       0.09880000
    52  H          0.01710000       0.36930000       0.90120000
    53  H          0.01710000       0.13070000       0.40120000
    54  H          0.48290000       0.13070000       0.59880000
    55  H          0.51710000       0.63070000       0.90120000
    56  H          0.98290000       0.63070000       0.09880000
    57  C          0.90241800       0.64923000       0.61405600
    58  C          0.59758200       0.64923000       0.38594400
    59  C          0.40241800       0.14923000       0.11405600
    60  C          0.09758200       0.14923000       0.88594400
    61  C          0.09758200       0.35077000       0.38594400
    62  C          0.40241800       0.35077000       0.61405600
    63  C          0.59758200       0.85077000       0.88594400
    64  C          0.90241800       0.85077000       0.11405600
    65  H          0.92480000       0.55070000       0.64110000
    66  H          0.57520000       0.55070000       0.35890000
    67  H          0.42480000       0.05070000       0.14110000
    68  H          0.07520000       0.05070000       0.85890000
    69  H          0.07520000       0.44930000       0.35890000
    70  H          0.42480000       0.44930000       0.64110000
    71  H          0.57520000       0.94930000       0.85890000
    72  H          0.92480000       0.94930000       0.14110000
    73  C          0.80782800       0.73663000       0.56326600
    74  C          0.69217200       0.73663000       0.43673400
    75  C          0.30782800       0.23663000       0.06326600
    76  C          0.19217200       0.23663000       0.93673400
    77  C          0.19217200       0.26337000       0.43673400
    78  C          0.30782800       0.26337000       0.56326600
    79  C          0.69217200       0.76337000       0.93673400
    80  C          0.80782800       0.76337000       0.06326600
    81  H          0.76260000       0.69950000       0.55380000
    82  H          0.73740000       0.69950000       0.44620000
    83  H          0.26260000       0.19950000       0.05380000
    84  H          0.23740000       0.19950000       0.94620000
    85  H          0.23740000       0.30050000       0.44620000
    86  H          0.26260000       0.30050000       0.55380000
    87  H          0.73740000       0.80050000       0.94620000
    88  H          0.76260000       0.80050000       0.05380000
    89  C          0.83896700       0.93193000       0.53640600
    90  C          0.66103300       0.93193000       0.46359400
    91  C          0.33896700       0.43193000       0.03640600
    92  C          0.16103300       0.43193000       0.96359400
    93  C          0.16103300       0.06807000       0.46359400
    94  C          0.33896700       0.06807000       0.53640600
    95  C          0.66103300       0.56807000       0.96359400
    96  C          0.83896700       0.56807000       0.03640600
    97  H          0.81530000       0.02740000       0.50950000
    98  H          0.68470000       0.02740000       0.49050000
    99  H          0.31530000       0.52740000       0.00950000
   100  H          0.18470000       0.52740000       0.99050000
   101  H          0.18470000       0.97260000       0.49050000
   102  H          0.31530000       0.97260000       0.50950000
   103  H          0.68470000       0.47260000       0.99050000
   104  H          0.81530000       0.47260000       0.00950000
   105  C          0.90544700      -0.01417000       0.54955500
   106  C          0.59455300      -0.01417000       0.45044500
   107  C          0.40544700       0.48583000       0.04955500
   108  C          0.09455300       0.48583000       0.95044500
   109  C          0.09455300       0.01417000       0.45044500
   110  C          0.40544700       0.01417000       0.54955500
   111  C          0.59455300       0.51417000       0.95044500
   112  C          0.90544700       0.51417000       0.04955500
   113  C          0.94448700       0.19933000       0.52529500
   114  C          0.55551300       0.19933000       0.47470500
   115  C          0.44448700       0.69933000       0.02529500
   116  C          0.05551300       0.69933000       0.97470500
   117  C          0.05551300       0.80067000       0.47470500
   118  C          0.44448700       0.80067000       0.52529500
   119  C          0.55551300       0.30067000       0.97470500
   120  C          0.94448700       0.30067000       0.02529500
   121  O          0.76805600       0.26562000       0.65588400
   122  O          0.73194400       0.26562000       0.34411600
   123  O          0.26805600       0.76562000       0.15588400
   124  O          0.23194400       0.76562000       0.84411600
   125  O          0.23194400       0.73438000       0.34411600
   126  O          0.26805600       0.73438000       0.65588400
   127  O          0.73194400       0.23438000       0.84411600
   128  O          0.76805600       0.23438000       0.15588400
   129  H          0.79561100       0.39450000       0.63669000
   130  H          0.70438900       0.39450000       0.36331000
   131  H          0.29561100       0.89450000       0.13669000
   132  H          0.20438900       0.89450000       0.86331000
   133  H          0.20438900       0.60550000       0.36331000
   134  H          0.29561100       0.60550000       0.63669000
   135  H          0.70438900       0.10550000       0.86331000
   136  H          0.79561100       0.10550000       0.13669000
   137  O          0.70578500       0.24350190       0.58014400
   138  O          0.79421500       0.24350190       0.41985600
   139  O          0.20578500       0.74350190       0.08014400
   140  O          0.29421500       0.74350190       0.91985600
   141  O          0.29421500       0.75649810       0.41985600
   142  O          0.20578500       0.75649810       0.58014400
   143  O          0.79421500       0.25649810       0.91985600
   144  O          0.70578500       0.25649810       0.08014400
   145  O          0.56198500       0.41258000       0.72035400
   146  O          0.93801500       0.41258000       0.27964600
   147  O          0.06198500       0.91258000       0.22035400
   148  O          0.43801500       0.91258000       0.77964600
   149  O          0.43801500       0.58742000       0.27964600
   150  O          0.06198500       0.58742000       0.72035400
   151  O          0.93801500       0.08742000       0.77964600
   152  O          0.56198500       0.08742000       0.22035400
   153  C          0.67701700      -0.02073000       0.65336500
   154  C          0.82298300      -0.02073000       0.34663500
   155  C          0.17701700       0.47927000       0.15336500
   156  C          0.32298300       0.47927000       0.84663500
   157  C          0.32298300       0.02073000       0.34663500
   158  C          0.17701700       0.02073000       0.65336500
   159  C          0.82298300       0.52073000       0.84663500
   160  C          0.67701700       0.52073000       0.15336500
   161  C          0.68727800       0.92167000       0.70733600
   162  C          0.81272200       0.92167000       0.29266400
   163  C          0.18727800       0.42167000       0.20733600
   164  C          0.31272200       0.42167000       0.79266400
   165  C          0.31272200       0.07833000       0.29266400
   166  C          0.18727800       0.07833000       0.70733600
   167  C          0.81272200       0.57833000       0.79266400
   168  C          0.68727800       0.57833000       0.20733600
   169  H          0.72040000       0.01170000       0.72790000
   170  H          0.77960000       0.01170000       0.27210000
   171  H          0.22040000       0.51170000       0.22790000
   172  H          0.27960000       0.51170000       0.77210000
   173  H          0.27960000      -0.01170000       0.27210000
   174  H          0.22040000      -0.01170000       0.72790000
   175  H          0.77960000       0.48830000       0.77210000
   176  H          0.72040000       0.48830000       0.22790000
   177  C          0.64965800       0.73407000       0.73165600
   178  C          0.85034200       0.73407000       0.26834400
   179  C          0.14965800       0.23407000       0.23165600
   180  C          0.35034200       0.23407000       0.76834400
   181  C          0.35034200       0.26593000       0.26834400
   182  C          0.14965800       0.26593000       0.73165600
   183  C          0.85034200       0.76593000       0.76834400
   184  C          0.64965800       0.76593000       0.23165600
   185  H          0.65680000       0.69690000       0.76860000
   186  H          0.84320000       0.69690000       0.23140000
   187  H          0.15680000       0.19690000       0.26860000
   188  H          0.34320000       0.19690000       0.73140000
   189  H          0.34320000       0.30310000       0.23140000
   190  H          0.15680000       0.30310000       0.76860000
   191  H          0.84320000       0.80310000       0.73140000
   192  H          0.65680000       0.80310000       0.26860000
   193  C          0.60158700       0.60207000       0.70130600
   194  C          0.89841300       0.60207000       0.29869400
   195  C          0.10158700       0.10207000       0.20130600
   196  C          0.39841300       0.10207000       0.79869400
   197  C          0.39841300       0.39793000       0.29869400
   198  C          0.10158700       0.39793000       0.70130600
   199  C          0.89841300       0.89793000       0.79869400
   200  C          0.60158700       0.89793000       0.20130600
   201  C          0.59008800       0.66097000       0.64770600
   202  C          0.90991200       0.66097000       0.35229400
   203  C          0.09008800       0.16097000       0.14770600
   204  C          0.40991200       0.16097000       0.85229400
   205  C          0.40991200       0.33903000       0.35229400
   206  C          0.09008800       0.33903000       0.64770600
   207  C          0.90991200       0.83903000       0.85229400
   208  C          0.59008800       0.83903000       0.14770600
   209  H          0.55660000       0.57230000       0.62720000
   210  H          0.94340000       0.57230000       0.37280000
   211  H          0.05660000       0.07230000       0.12720000
   212  H          0.44340000       0.07230000       0.87280000
   213  H          0.44340000       0.42770000       0.37280000
   214  H          0.05660000       0.42770000       0.62720000
   215  H          0.94340000       0.92770000       0.87280000
   216  H          0.55660000       0.92770000       0.12720000
   217  C          0.62733700       0.84867000       0.62421600
   218  C          0.87266300       0.84867000       0.37578400
   219  C          0.12733700       0.34867000       0.12421600
   220  C          0.37266300       0.34867000       0.87578400
   221  C          0.37266300       0.15133000       0.37578400
   222  C          0.12733700       0.15133000       0.62421600
   223  C          0.87266300       0.65133000       0.87578400
   224  C          0.62733700       0.65133000       0.12421600
   225  H          0.61890000       0.88930000       0.58760000
   226  H          0.88110000       0.88930000       0.41240000
   227  H          0.11890000       0.38930000       0.08760000
   228  H          0.38110000       0.38930000       0.91240000
   229  H          0.38110000       0.11070000       0.41240000
   230  H          0.11890000       0.11070000       0.58760000
   231  H          0.88110000       0.61070000       0.91240000
   232  H          0.61890000       0.61070000       0.08760000
   233  C          0.71733700       0.17453000       0.62627600
   234  C          0.78266300       0.17453000       0.37372400
   235  C          0.21733700       0.67453000       0.12627600
   236  C          0.28266300       0.67453000       0.87372400
   237  C          0.28266300       0.82547000       0.37372400
   238  C          0.21733700       0.82547000       0.62627600
   239  C          0.78266300       0.32547000       0.87372400
   240  C          0.71733700       0.32547000       0.12627600
   241  C          0.56935900       0.35036000       0.77560700
   242  C          0.93064100       0.35036000       0.22439300
   243  C          0.06935900       0.85036000       0.27560700
   244  C          0.43064100       0.85036000       0.72439300
   245  C          0.43064100       0.64964000       0.22439300
   246  C          0.06935900       0.64964000       0.77560700
   247  C          0.93064100       0.14964000       0.72439300
   248  C          0.56935900       0.14964000       0.27560700
   249  H          0.54080000       0.20400000       0.78340000
   250  H          0.95920000       0.20400000       0.21660000
   251  H          0.04080000       0.70400000       0.28340000
   252  H          0.45920000       0.70400000       0.71660000
   253  H          0.45920000       0.79600000       0.21660000
   254  H          0.04080000       0.79600000       0.78340000
   255  H          0.95920000       0.29600000       0.71660000
   256  H          0.54080000       0.29600000       0.28340000
   257  H          0.55640000       0.49780000       0.79700000
   258  H          0.94360000       0.49780000       0.20300000
   259  H          0.05640000      -0.00220000       0.29700000
   260  H          0.44360000      -0.00220000       0.70300000
   261  H          0.44360000       0.50220000       0.20300000
   262  H          0.05640000       0.50220000       0.79700000
   263  H          0.94360000       0.00220000       0.70300000
   264  H          0.55640000       0.00220000       0.29700000
   265  H          0.61590000       0.30650000       0.78440000
   266  H          0.88410000       0.30650000       0.21560000
   267  H          0.11590000       0.80650000       0.28440000
   268  H          0.38410000       0.80650000       0.71560000
   269  H          0.38410000       0.69350000       0.21560000
   270  H          0.11590000       0.69350000       0.78440000
   271  H          0.88410000       0.19350000       0.71560000
   272  H          0.61590000       0.19350000       0.28440000
