data_TAWBOL
_symmetry_space_group_name_H-M    'P1'
_symmetry_Int_Tables_number       1
loop_
_symmetry_equiv_pos_site_id
_symmetry_equiv_pos_as_xyz
1 x,y,z
_cell_length_a                   20.1265
_cell_length_b                   5.221212
_cell_length_c                   25.1346
_cell_angle_alpha                90.0
_cell_angle_beta                 92.40116
_cell_angle_gamma                90.0
loop_
_atom_site_label
_atom_site_type_symbol
_atom_site_fract_x
_atom_site_fract_y
_atom_site_fract_z
     1  O          0.00083500       0.24582000       0.54443400
     2  O          0.49916500       0.24582000       0.45556600
     3  O          0.50083500       0.74582000       0.04443400
     4  O         -0.00083500       0.74582000       0.95556600
     5  O         -0.00083500       0.75418000       0.45556600
     6  O          0.50083500       0.75418000       0.54443400
     7  O          0.49916500       0.25418000       0.95556600
     8  O          0.00083500       0.25418000       0.04443400
     9  N          0.83840700       0.59923000       0.60167500
    10  N          0.66159300       0.59923000       0.39832500
    11  N          0.33840700       0.09923000       0.10167500
    12  N          0.16159300       0.09923000       0.89832500
    13  N          0.16159300       0.40077000       0.39832500
    14  N          0.33840700       0.40077000       0.60167500
    15  N          0.66159300       0.90077000       0.89832500
    16  N          0.83840700       0.90077000       0.10167500
    17  N          0.91625700       0.33383000       0.48579500
    18  N          0.58374300       0.33383000       0.51420500
    19  N          0.41625700       0.83383000       0.98579500
    20  N          0.08374300       0.83383000       0.01420500
    21  N          0.08374300       0.66617000       0.51420500
    22  N          0.41625700       0.66617000       0.48579500
    23  N          0.58374300       0.16617000       0.01420500
    24  N          0.91625700       0.16617000       0.98579500
    25  H          0.94079000       0.46830000       0.47376000
    26  H          0.55921000       0.46830000       0.52624000
    27  H          0.44079000       0.96830000       0.97376000
    28  H          0.05921000       0.96830000       0.02624000
    29  H          0.05921000       0.53170000       0.52624000
    30  H          0.44079000       0.53170000       0.47376000
    31  H          0.55921000       0.03170000       0.02624000
    32  H          0.94079000       0.03170000       0.97376000
    33  H          0.87601000       0.29930000       0.46987000
    34  H          0.62399000       0.29930000       0.53013000
    35  H          0.37601000       0.79930000       0.96987000
    36  H          0.12399000       0.79930000       0.03013000
    37  H          0.12399000       0.70070000       0.53013000
    38  H          0.37601000       0.70070000       0.46987000
    39  H          0.62399000       0.20070000       0.03013000
    40  H          0.87601000       0.20070000       0.96987000
    41  C          0.93706800       0.84043000       0.58908600
    42  C          0.56293200       0.84043000       0.41091400
    43  C          0.43706800       0.34043000       0.08908600
    44  C          0.06293200       0.34043000       0.91091400
    45  C          0.06293200       0.15957000       0.41091400
    46  C          0.43706800       0.15957000       0.58908600
    47  C          0.56293200       0.65957000       0.91091400
    48  C          0.93706800       0.65957000       0.08908600
    49  H          0.98250000       0.87030000       0.59880000
    50  H          0.51750000       0.87030000       0.40120000
    51  H          0.48250000       0.37030000       0.09880000
    52  H          0.01750000       0.37030000       0.90120000
    53  H          0.01750000       0.12970000       0.40120000
    54  H          0.48250000       0.12970000       0.59880000
    55  H          0.51750000       0.62970000       0.90120000
    56  H          0.98250000       0.62970000       0.09880000
    57  C          0.90219800       0.65123000       0.61395600
    58  C          0.59780200       0.65123000       0.38604400
    59  C          0.40219800       0.15123000       0.11395600
    60  C          0.09780200       0.15123000       0.88604400
    61  C          0.09780200       0.34877000       0.38604400
    62  C          0.40219800       0.34877000       0.61395600
    63  C          0.59780200       0.84877000       0.88604400
    64  C          0.90219800       0.84877000       0.11395600
    65  H          0.92450000       0.55330000       0.64110000
    66  H          0.57550000       0.55330000       0.35890000
    67  H          0.42450000       0.05330000       0.14110000
    68  H          0.07550000       0.05330000       0.85890000
    69  H          0.07550000       0.44670000       0.35890000
    70  H          0.42450000       0.44670000       0.64110000
    71  H          0.57550000       0.94670000       0.85890000
    72  H          0.92450000       0.94670000       0.14110000
    73  C          0.80810800       0.73713000       0.56329700
    74  C          0.69189200       0.73713000       0.43670300
    75  C          0.30810800       0.23713000       0.06329700
    76  C          0.19189200       0.23713000       0.93670300
    77  C          0.19189200       0.26287000       0.43670300
    78  C          0.30810800       0.26287000       0.56329700
    79  C          0.69189200       0.76287000       0.93670300
    80  C          0.80810800       0.76287000       0.06329700
    81  H          0.76290000       0.70020000       0.55390000
    82  H          0.73710000       0.70020000       0.44610000
    83  H          0.26290000       0.20020000       0.05390000
    84  H          0.23710000       0.20020000       0.94610000
    85  H          0.23710000       0.29980000       0.44610000
    86  H          0.26290000       0.29980000       0.55390000
    87  H          0.73710000       0.79980000       0.94610000
    88  H          0.76290000       0.79980000       0.05390000
    89  C          0.83928700       0.93213000       0.53640600
    90  C          0.66071300       0.93213000       0.46359400
    91  C          0.33928700       0.43213000       0.03640600
    92  C          0.16071300       0.43213000       0.96359400
    93  C          0.16071300       0.06787000       0.46359400
    94  C          0.33928700       0.06787000       0.53640600
    95  C          0.66071300       0.56787000       0.96359400
    96  C          0.83928700       0.56787000       0.03640600
    97  H          0.81580000       0.02670000       0.50930000
    98  H          0.68420000       0.02670000       0.49070000
    99  H          0.31580000       0.52670000       0.00930000
   100  H          0.18420000       0.52670000       0.99070000
   101  H          0.18420000      -0.02670000       0.49070000
   102  H          0.31580000      -0.02670000       0.50930000
   103  H          0.68420000       0.47330000       0.99070000
   104  H          0.81580000       0.47330000       0.00930000
   105  C          0.90531700      -0.01337000       0.54978500
   106  C          0.59468300      -0.01337000       0.45021500
   107  C          0.40531700       0.48663000       0.04978500
   108  C          0.09468300       0.48663000       0.95021500
   109  C          0.09468300       0.01337000       0.45021500
   110  C          0.40531700       0.01337000       0.54978500
   111  C          0.59468300       0.51337000       0.95021500
   112  C          0.90531700       0.51337000       0.04978500
   113  C          0.94444700       0.19963000       0.52556600
   114  C          0.55555300       0.19963000       0.47443400
   115  C          0.44444700       0.69963000       0.02556600
   116  C          0.05555300       0.69963000       0.97443400
   117  C          0.05555300       0.80037000       0.47443400
   118  C          0.44444700       0.80037000       0.52556600
   119  C          0.55555300       0.30037000       0.97443400
   120  C          0.94444700       0.30037000       0.02556600
   121  O          0.76788600       0.26592000       0.65543500
   122  O          0.73211400       0.26592000       0.34456500
   123  O          0.26788600       0.76592000       0.15543500
   124  O          0.23211400       0.76592000       0.84456500
   125  O          0.23211400       0.73408000       0.34456500
   126  O          0.26788600       0.73408000       0.65543500
   127  O          0.73211400       0.23408000       0.84456500
   128  O          0.76788600       0.23408000       0.15543500
   129  H          0.79291100       0.38840000       0.63578000
   130  H          0.70708900       0.38840000       0.36422000
   131  H          0.29291100       0.88840000       0.13578000
   132  H          0.20708900       0.88840000       0.86422000
   133  H          0.20708900       0.61160000       0.36422000
   134  H          0.29291100       0.61160000       0.63578000
   135  H          0.70708900       0.11160000       0.86422000
   136  H          0.79291100       0.11160000       0.13578000
   137  O          0.70561500       0.24342000       0.58023400
   138  O          0.79438500       0.24342000       0.41976600
   139  O          0.20561500       0.74342000       0.08023400
   140  O          0.29438500       0.74342000       0.91976600
   141  O          0.29438500       0.75658000       0.41976600
   142  O          0.20561500       0.75658000       0.58023400
   143  O          0.79438500       0.25658000       0.91976600
   144  O          0.70561500       0.25658000       0.08023400
   145  O          0.56217600       0.41658000       0.72070400
   146  O          0.93782400       0.41658000       0.27929600
   147  O          0.06217600       0.91658000       0.22070400
   148  O          0.43782400       0.91658000       0.77929600
   149  O          0.43782400       0.58342000       0.27929600
   150  O          0.06217600       0.58342000       0.72070400
   151  O          0.93782400       0.08342000       0.77929600
   152  O          0.56217600       0.08342000       0.22070400
   153  C          0.67704700      -0.01963000       0.65336600
   154  C          0.82295300      -0.01963000       0.34663400
   155  C          0.17704700       0.48037000       0.15336600
   156  C          0.32295300       0.48037000       0.84663400
   157  C          0.32295300       0.01963000       0.34663400
   158  C          0.17704700       0.01963000       0.65336600
   159  C          0.82295300       0.51963000       0.84663400
   160  C          0.67704700       0.51963000       0.15336600
   161  C          0.68753800       0.92337000       0.70678600
   162  C          0.81246200       0.92337000       0.29321400
   163  C          0.18753800       0.42337000       0.20678600
   164  C          0.31246200       0.42337000       0.79321400
   165  C          0.31246200       0.07663000       0.29321400
   166  C          0.18753800       0.07663000       0.70678600
   167  C          0.81246200       0.57663000       0.79321400
   168  C          0.68753800       0.57663000       0.20678600
   169  H          0.72090000       0.01310000       0.72710000
   170  H          0.77910000       0.01310000       0.27290000
   171  H          0.22090000       0.51310000       0.22710000
   172  H          0.27910000       0.51310000       0.77290000
   173  H          0.27910000      -0.01310000       0.27290000
   174  H          0.22090000      -0.01310000       0.72710000
   175  H          0.77910000       0.48690000       0.77290000
   176  H          0.72090000       0.48690000       0.22710000
   177  C          0.65007900       0.73697000       0.73122600
   178  C          0.84992100       0.73697000       0.26877400
   179  C          0.15007900       0.23697000       0.23122600
   180  C          0.34992100       0.23697000       0.76877400
   181  C          0.34992100       0.26303000       0.26877400
   182  C          0.15007900       0.26303000       0.73122600
   183  C          0.84992100       0.76303000       0.76877400
   184  C          0.65007900       0.76303000       0.23122600
   185  H          0.65750000       0.70050000       0.76800000
   186  H          0.84250000       0.70050000       0.23200000
   187  H          0.15750000       0.20050000       0.26800000
   188  H          0.34250000       0.20050000       0.73200000
   189  H          0.34250000       0.29950000       0.23200000
   190  H          0.15750000       0.29950000       0.76800000
   191  H          0.84250000       0.79950000       0.73200000
   192  H          0.65750000       0.79950000       0.26800000
   193  C          0.60180700       0.60487000       0.70145600
   194  C          0.89819300       0.60487000       0.29854400
   195  C          0.10180700       0.10487000       0.20145600
   196  C          0.39819300       0.10487000       0.79854400
   197  C          0.39819300       0.39513000       0.29854400
   198  C          0.10180700       0.39513000       0.70145600
   199  C          0.89819300       0.89513000       0.79854400
   200  C          0.60180700       0.89513000       0.20145600
   201  C          0.59033800       0.66287000       0.64818600
   202  C          0.90966200       0.66287000       0.35181400
   203  C          0.09033800       0.16287000       0.14818600
   204  C          0.40966200       0.16287000       0.85181400
   205  C          0.40966200       0.33713000       0.35181400
   206  C          0.09033800       0.33713000       0.64818600
   207  C          0.90966200       0.83713000       0.85181400
   208  C          0.59033800       0.83713000       0.14818600
   209  H          0.55680000       0.57380000       0.62790000
   210  H          0.94320000       0.57380000       0.37210000
   211  H          0.05680000       0.07380000       0.12790000
   212  H          0.44320000       0.07380000       0.87210000
   213  H          0.44320000       0.42620000       0.37210000
   214  H          0.05680000       0.42620000       0.62790000
   215  H          0.94320000       0.92620000       0.87210000
   216  H          0.55680000       0.92620000       0.12790000
   217  C          0.62742800       0.84987000       0.62442600
   218  C          0.87257200       0.84987000       0.37557400
   219  C          0.12742800       0.34987000       0.12442600
   220  C          0.37257200       0.34987000       0.87557400
   221  C          0.37257200       0.15013000       0.37557400
   222  C          0.12742800       0.15013000       0.62442600
   223  C          0.87257200       0.65013000       0.87557400
   224  C          0.62742800       0.65013000       0.12442600
   225  H          0.61890000       0.88970000       0.58790000
   226  H          0.88110000       0.88970000       0.41210000
   227  H          0.11890000       0.38970000       0.08790000
   228  H          0.38110000       0.38970000       0.91210000
   229  H          0.38110000       0.11030000       0.41210000
   230  H          0.11890000       0.11030000       0.58790000
   231  H          0.88110000       0.61030000       0.91210000
   232  H          0.61890000       0.61030000       0.08790000
   233  C          0.71712700       0.17483000       0.62616600
   234  C          0.78287300       0.17483000       0.37383400
   235  C          0.21712700       0.67483000       0.12616600
   236  C          0.28287300       0.67483000       0.87383400
   237  C          0.28287300       0.82517000       0.37383400
   238  C          0.21712700       0.82517000       0.62616600
   239  C          0.78287300       0.32517000       0.87383400
   240  C          0.71712700       0.32517000       0.12616600
   241  C          0.56967100       0.35466000       0.77556700
   242  C          0.93032900       0.35466000       0.22443300
   243  C          0.06967100       0.85466000       0.27556700
   244  C          0.43032900       0.85466000       0.72443300
   245  C          0.43032900       0.64534000       0.22443300
   246  C          0.06967100       0.64534000       0.77556700
   247  C          0.93032900       0.14534000       0.72443300
   248  C          0.56967100       0.14534000       0.27556700
   249  H          0.54030000       0.21130000       0.78360000
   250  H          0.95970000       0.21130000       0.21640000
   251  H          0.04030000       0.71130000       0.28360000
   252  H          0.45970000       0.71130000       0.71640000
   253  H          0.45970000       0.78870000       0.21640000
   254  H          0.04030000       0.78870000       0.78360000
   255  H          0.95970000       0.28870000       0.71640000
   256  H          0.54030000       0.28870000       0.28360000
   257  H          0.55790000       0.50380000       0.79690000
   258  H          0.94210000       0.50380000       0.20310000
   259  H          0.05790000       0.00380000       0.29690000
   260  H          0.44210000       0.00380000       0.70310000
   261  H          0.44210000       0.49620000       0.20310000
   262  H          0.05790000       0.49620000       0.79690000
   263  H          0.94210000      -0.00380000       0.70310000
   264  H          0.55790000      -0.00380000       0.29690000
   265  H          0.61590000       0.30630000       0.78410000
   266  H          0.88410000       0.30630000       0.21590000
   267  H          0.11590000       0.80630000       0.28410000
   268  H          0.38410000       0.80630000       0.71590000
   269  H          0.38410000       0.69370000       0.21590000
   270  H          0.11590000       0.69370000       0.78410000
   271  H          0.88410000       0.19370000       0.71590000
   272  H          0.61590000       0.19370000       0.28410000
