data_TAWCUS
_symmetry_space_group_name_H-M    'P1'
_symmetry_Int_Tables_number       1
loop_
_symmetry_equiv_pos_site_id
_symmetry_equiv_pos_as_xyz
1 x,y,z
_cell_length_a                   7.78561
_cell_length_b                   10.119112
_cell_length_c                   14.6472
_cell_angle_alpha                91.3911
_cell_angle_beta                 101.0459
_cell_angle_gamma                110.1808
loop_
_atom_site_label
_atom_site_type_symbol
_atom_site_fract_x
_atom_site_fract_y
_atom_site_fract_z
     1  I          0.67035400       0.43887300       0.60238717
     2  I          0.32964600       0.56112700       0.39761283
     3  S          0.29632000       0.40558880       0.88528200
     4  S          0.70368000       0.59441120       0.11471800
     5  S          0.27352000       0.29782870       0.76110200
     6  S          0.72648000       0.70217130       0.23889800
     7  C          0.17747000       0.40415000       0.68617000
     8  C          0.82253000       0.59585000       0.31383000
     9  H          0.22660000       0.41290000       0.62820000
    10  H          0.77340000       0.58710000       0.37180000
    11  H          0.03930000       0.35900000       0.66880000
    12  H          0.96070000       0.64100000       0.33120000
    13  C          0.23137000       0.54935000       0.73737000
    14  C          0.76863000       0.45065000       0.26263000
    15  H          0.15610000       0.60120000       0.70320000
    16  H          0.84390000       0.39880000       0.29680000
    17  H          0.36520000       0.60400000       0.73970000
    18  H          0.63480000       0.39600000       0.26030000
    19  C          0.19807000       0.53636000       0.83617000
    20  C          0.80193000       0.46364000       0.16383000
    21  H          0.05990000       0.49910000       0.83300000
    22  H          0.94010000       0.50090000       0.16700000
    23  C          0.28446000       0.67286000       0.89887000
    24  C          0.71554000       0.32714000       0.10113000
    25  H          0.23670000       0.74400000       0.86940000
    26  H          0.76330000       0.25600000       0.13060000
    27  H          0.42160000       0.70790000       0.90390000
    28  H          0.57840000       0.29210000       0.09610000
    29  C          0.24546000       0.66136000      -0.00263000
    30  C          0.75454000       0.33864000       0.00263000
    31  H          0.10850000       0.62850000      -0.00690000
    32  H          0.89150000       0.37150000       0.00690000
    33  H          0.29160000       0.58960000       0.02710000
    34  H          0.70840000       0.41040000       0.97290000
    35  C          0.33776000       0.80036000       0.05853000
    36  C          0.66224000       0.19964000       0.94147000
    37  H          0.29780000       0.87370000       0.02700000
    38  H          0.70220000       0.12630000       0.97300000
    39  H          0.47530000       0.83020000       0.06640000
    40  H          0.52470000       0.16980000       0.93360000
    41  C          0.28766000       0.78966000       0.15473000
    42  C          0.71234000       0.21034000       0.84527000
    43  H          0.14960000       0.75570000       0.14650000
    44  H          0.85040000       0.24430000       0.85350000
    45  H          0.33230000       0.71930000       0.18710000
    46  H          0.66770000       0.28070000       0.81290000
    47  C          0.37126000       0.92796000       0.21433000
    48  C          0.62874000       0.07204000       0.78567000
    49  O          0.44134000       0.04253000       0.19132190
    50  O          0.55866000       0.95747000       0.80867810
    51  O          0.35174000       0.90517000       0.30596180
    52  O          0.64826000       0.09483000       0.69403820
    53  C          0.42386000       0.02444000       0.36983000
    54  C          0.57614000       0.97556000       0.63017000
    55  C          0.30695000       0.05964000       0.41783000
    56  C          0.69305000       0.94036000       0.58217000
    57  C          0.37646000       0.17654000       0.48263000
    58  C          0.62354000       0.82346000       0.51737000
    59  C          0.56386000       0.26204000       0.50182000
    60  C          0.43614000       0.73796000       0.49818000
    61  C          0.67916000       0.22344000       0.45453000
    62  C          0.32084000       0.77656000       0.54547000
    63  C          0.61166000       0.10674000       0.39033000
    64  C          0.38834000       0.89326000       0.60967000
    65  F          0.12483000       0.97778000       0.40230160
    66  F          0.87517000       0.02222000       0.59769840
    67  F          0.25703000       0.20612000       0.52747160
    68  F          0.74297000       0.79388000       0.47252840
    69  F          0.86433000       0.30002000       0.47111160
    70  F          0.13567000       0.69998000       0.52888840
    71  F          0.72943000       0.06853000       0.34864170
    72  F          0.27057000       0.93147000       0.65135830
    73  N          0.80645000       0.66163000       0.73962000
    74  N          0.19355000       0.33837000       0.26038000
    75  C         -0.01034000       0.90274000       0.79643000
    76  C          0.01034000       0.09726000       0.20357000
    77  H          0.06970000      -0.00780000       0.78420000
    78  H          0.93030000       0.00780000       0.21580000
    79  C          0.91986000       0.79034000       0.72803000
    80  C          0.08014000       0.20966000       0.27197000
    81  H          0.95440000       0.80550000       0.66920000
    82  H          0.04560000       0.19450000       0.33080000
    83  C          0.76026000       0.64414000       0.82303000
    84  C          0.23974000       0.35586000       0.17697000
    85  H          0.67920000       0.55330000       0.83270000
    86  H          0.32080000       0.44670000       0.16730000
    87  C          0.82275000       0.74904000       0.89573000
    88  C          0.17725000       0.25096000       0.10427000
    89  H          0.78540000       0.73030000       0.95350000
    90  H          0.21460000       0.26970000       0.04650000
    91  C          0.94235000       0.88434000       0.88343000
    92  C          0.05765000       0.11566000       0.11657000
    93  C          0.01555000       0.00234000       0.95673000
    94  C         -0.01555000      -0.00234000       0.04327000
    95  H          0.09250000       0.09070000       0.94120000
    96  H          0.90750000       0.90930000       0.05880000
