data_TAXYID
_symmetry_space_group_name_H-M    'P1'
_symmetry_Int_Tables_number       1
loop_
_symmetry_equiv_pos_site_id
_symmetry_equiv_pos_as_xyz
1 x,y,z
_cell_length_a                   18.6464
_cell_length_b                   4.38509
_cell_length_c                   24.7915
_cell_angle_alpha                90.0
_cell_angle_beta                 108.383
_cell_angle_gamma                90.0
loop_
_atom_site_label
_atom_site_type_symbol
_atom_site_fract_x
_atom_site_fract_y
_atom_site_fract_z
     1  I          0.83538300       0.65588130       0.39469200
     2  I          0.16461700       0.15588130       0.10530800
     3  I          0.16461700       0.34411870       0.60530800
     4  I          0.83538300       0.84411870       0.89469200
     5  I          0.19061300       0.41474140       0.36366200
     6  I          0.80938700       0.91474140       0.13633800
     7  I          0.80938700       0.58525860       0.63633800
     8  I          0.19061300       0.08525860       0.86366200
     9  F          0.97573000       0.24251300       0.46132000
    10  F          0.02427000       0.74251300       0.03868000
    11  F          0.02427000       0.75748700       0.53868000
    12  F          0.97573000       0.25748700       0.96132000
    13  F          0.04733000       0.81241300       0.29082000
    14  F          0.95267000       0.31241300       0.20918000
    15  F          0.95267000       0.18758700       0.70918000
    16  F          0.04733000       0.68758700       0.79082000
    17  F          0.11033000       0.14461300       0.44872000
    18  F          0.88967000       0.64461300       0.05128000
    19  F          0.88967000       0.85538700       0.55128000
    20  F          0.11033000       0.35538700       0.94872000
    21  F          0.91163000       0.90201300       0.30232000
    22  F          0.08837000       0.40201300       0.19768000
    23  F          0.08837000       0.09798700       0.69768000
    24  F          0.91163000       0.59798700       0.80232000
    25  C          0.94015000       0.57320000       0.38254000
    26  C          0.05985000       0.07320000       0.11746000
    27  C          0.05985000       0.42680000       0.61746000
    28  C          0.94015000       0.92680000       0.88254000
    29  C          0.96015000       0.71320000       0.33934000
    30  C          0.03985000       0.21320000       0.16066000
    31  C          0.03985000       0.28680000       0.66066000
    32  C          0.96015000       0.78680000       0.83934000
    33  C          0.08295000       0.47820000       0.36974000
    34  C          0.91705000      -0.02180000       0.13026000
    35  C          0.91705000       0.52180000       0.63026000
    36  C          0.08295000       0.02180000       0.86974000
    37  C          0.03035000       0.67020000       0.33304000
    38  C          0.96965000       0.17020000       0.16696000
    39  C          0.96965000       0.32980000       0.66696000
    40  C          0.03035000       0.82980000       0.83304000
    41  C          0.06205000       0.33820000       0.41244000
    42  C          0.93795000       0.83820000       0.08756000
    43  C          0.93795000       0.66180000       0.58756000
    44  C          0.06205000       0.16180000       0.91244000
    45  C         -0.00794000       0.38620000       0.41854000
    46  C          0.00794000       0.88620000       0.08146000
    47  C          0.00794000       0.61380000       0.58146000
    48  C         -0.00794000       0.11380000       0.91854000
    49  O          0.45344000       0.65141700       0.43733000
    50  O          0.54656000       0.15141700       0.06267000
    51  O          0.54656000       0.34858300       0.56267000
    52  O          0.45344000       0.84858300       0.93733000
    53  O          0.35764000       0.31731600       0.37403000
    54  O          0.64236000       0.81731600       0.12597000
    55  O          0.64236000       0.68268400       0.62597000
    56  O          0.35764000       0.18268400       0.87403000
    57  N          0.69944000       0.79620000       0.42253000
    58  N          0.30056000       0.29620000       0.07747000
    59  N          0.30056000       0.20380000       0.57747000
    60  N          0.69944000       0.70380000       0.92253000
    61  N          0.39954000       0.75680000       0.22183000
    62  N          0.60046000       0.25680000       0.27817000
    63  N          0.60046000       0.24320000       0.77817000
    64  N          0.39954000       0.74320000       0.72183000
    65  C          0.50135000       0.56351800       0.41173000
    66  C          0.49865000       0.06351800       0.08827000
    67  C          0.49865000       0.43648200       0.58827000
    68  C          0.50135000       0.93648200       0.91173000
    69  C          0.37855000       0.02420000       0.30053000
    70  C          0.62145000       0.52420000       0.19947000
    71  C          0.62145000      -0.02420000       0.69947000
    72  C          0.37855000       0.47580000       0.80053000
    73  C          0.42365000       0.94380000       0.26704000
    74  C          0.57635000       0.44380000       0.23296000
    75  C          0.57635000       0.05620000       0.73296000
    76  C          0.42365000       0.55620000       0.76704000
    77  H          0.47340000       0.02470000       0.27660000
    78  H          0.52660000       0.52470000       0.22340000
    79  H          0.52660000      -0.02470000       0.72340000
    80  H          0.47340000       0.47530000       0.77660000
    81  C          0.33005000       0.64480000       0.20964000
    82  C          0.66995000       0.14480000       0.29036000
    83  C          0.66995000       0.35520000       0.79036000
    84  C          0.33005000       0.85520000       0.70964000
    85  H          0.31250000       0.51290000       0.17770000
    86  H          0.68750000       0.01290000       0.32230000
    87  H          0.68750000       0.48710000       0.82230000
    88  H          0.31250000      -0.01290000       0.67770000
    89  C          0.57705000       0.70220000       0.43353000
    90  C          0.42295000       0.20220000       0.06647000
    91  C          0.42295000       0.29780000       0.56647000
    92  C          0.57705000       0.79780000       0.93353000
    93  C          0.59735000       0.87620000       0.48284000
    94  C          0.40265000       0.37620000       0.01716000
    95  C          0.40265000       0.12380000       0.51716000
    96  C          0.59735000       0.62380000       0.98284000
    97  H          0.56280000       0.90500000       0.50350000
    98  H          0.43720000       0.40500000      -0.00350000
    99  H          0.43720000       0.09500000       0.49650000
   100  H          0.56280000       0.59500000       0.00350000
   101  C          0.66766000       0.00620000       0.50124000
   102  C          0.33234000       0.50620000      -0.00124000
   103  C          0.33234000      -0.00620000       0.49876000
   104  C          0.66766000       0.49380000       0.00124000
   105  H          0.68230000       0.12460000       0.53500000
   106  H          0.31770000       0.62460000       0.96500000
   107  H          0.31770000       0.87540000       0.46500000
   108  H          0.68230000       0.37540000       0.03500000
   109  C          0.47965000       0.35571900       0.36673000
   110  C          0.52035000       0.85571900       0.13327000
   111  C          0.52035000       0.64428100       0.63327000
   112  C          0.47965000       0.14428100       0.86673000
   113  H          0.51480000       0.29220000       0.34830000
   114  H          0.48520000       0.79220000       0.15170000
   115  H          0.48520000       0.70780000       0.65170000
   116  H          0.51480000       0.20780000       0.84830000
   117  C          0.71755000       0.96420000       0.47034000
   118  C          0.28245000       0.46420000       0.02966000
   119  C          0.28245000       0.03580000       0.52966000
   120  C          0.71755000       0.53580000       0.97034000
   121  H          0.76590000       0.05730000       0.48330000
   122  H          0.23410000       0.55730000       0.01670000
   123  H          0.23410000       0.94270000       0.51670000
   124  H          0.76590000       0.44270000       0.98330000
   125  C          0.63095000       0.66720000       0.40494000
   126  C          0.36905000       0.16720000       0.09506000
   127  C          0.36905000       0.33280000       0.59506000
   128  C          0.63095000       0.83280000       0.90494000
   129  H          0.61790000       0.54500000       0.37150000
   130  H          0.38210000       0.04500000       0.12850000
   131  H          0.38210000       0.45500000       0.62850000
   132  H          0.61790000       0.95500000       0.87150000
   133  C          0.40605000       0.24221900       0.34913000
   134  C          0.59395000       0.74221900       0.15087000
   135  C          0.59395000       0.75778100       0.65087000
   136  C          0.40605000       0.25778100       0.84913000
   137  C          0.30635000       0.90080000       0.28684000
   138  C          0.69365000       0.40080000       0.21316000
   139  C          0.69365000       0.09920000       0.71316000
   140  C          0.30635000       0.59920000       0.78684000
   141  H          0.27450000       0.94940000       0.30890000
   142  H          0.72550000       0.44940000       0.19110000
   143  H          0.72550000       0.05060000       0.69110000
   144  H          0.27450000       0.55060000       0.80890000
   145  C          0.28125000       0.70780000       0.24094000
   146  C          0.71875000       0.20780000       0.25906000
   147  C          0.71875000       0.29220000       0.75906000
   148  C          0.28125000       0.79220000       0.74094000
   149  H          0.23210000       0.62080000       0.23080000
   150  H          0.76790000       0.12080000       0.26920000
   151  H          0.76790000       0.37920000       0.76920000
   152  H          0.23210000       0.87920000       0.73080000
   153  H          0.41040000       0.57300000       0.42050000
   154  H          0.58960000       0.07300000       0.07950000
   155  H          0.58960000       0.42700000       0.57950000
   156  H          0.41040000       0.92700000       0.92050000
