data_TAZBII
_symmetry_space_group_name_H-M    'P1'
_symmetry_Int_Tables_number       1
loop_
_symmetry_equiv_pos_site_id
_symmetry_equiv_pos_as_xyz
1 x,y,z
_cell_length_a                   6.75703
_cell_length_b                   9.78274
_cell_length_c                   10.54565
_cell_angle_alpha                112.7624
_cell_angle_beta                 94.0064
_cell_angle_gamma                96.9044
loop_
_atom_site_label
_atom_site_type_symbol
_atom_site_fract_x
_atom_site_fract_y
_atom_site_fract_z
     1  C          0.75602000       0.66557150       0.55953140
     2  C          0.24398000       0.33442850       0.44046860
     3  C          0.58942000       0.74383160       0.56904160
     4  C          0.41058000       0.25616840       0.43095840
     5  H          0.48530000       0.70940000       0.49620000
     6  H          0.51470000       0.29060000       0.50380000
     7  C          0.58222000       0.86789180       0.68349180
     8  C          0.41778000       0.13210820       0.31650820
     9  H          0.47150000       0.91710000       0.68930000
    10  H          0.52850000       0.08290000       0.31070000
    11  C          0.74153000       0.92492170       0.79585170
    12  C          0.25847000       0.07507830       0.20414830
    13  H          0.73380000       0.01130000       0.87310000
    14  H          0.26620000      -0.01130000       0.12690000
    15  C          0.90302000       0.85515170       0.79147150
    16  C          0.09698000       0.14484830       0.20852850
    17  H          0.00580000       0.89410000       0.86530000
    18  H         -0.00580000       0.10590000       0.13470000
    19  C          0.91672000       0.72200150       0.67412140
    20  C          0.08328000       0.27799850       0.32587860
    21  C          0.92132190       0.47264140       0.44295130
    22  C          0.07867810       0.52735860       0.55704870
    23  N          0.76070160       0.54299120       0.44641110
    24  N          0.23929840       0.45700880       0.55358890
    25  N          0.07402160       0.65116120       0.67177110
    26  N          0.92597840       0.34883880       0.32822890
    27  C          0.31882000       0.30009140       0.96497140
    28  C          0.68118000       0.69990860       0.03502860
    29  C          0.36482000       0.22427160       0.83138150
    30  C          0.63518000       0.77572840       0.16861850
    31  H          0.49210000       0.19790000       0.81970000
    32  H          0.50790000       0.80210000       0.18030000
    33  C          0.22642000       0.18706170       0.71563140
    34  C          0.77358000       0.81293830       0.28436860
    35  H          0.25960000       0.13650000       0.62710000
    36  H          0.74040000       0.86350000       0.37290000
    37  C          0.03852000       0.22647160       0.73433140
    38  C          0.96148000       0.77352840       0.26566860
    39  C         -0.01432000       0.30105170       0.86402160
    40  C          0.01432000       0.69894830       0.13597840
    41  H          0.85790000       0.32670000       0.87490000
    42  H          0.14210000       0.67330000       0.12510000
    43  C          0.12692000       0.33704160       0.97785150
    44  C          0.87308000       0.66295840       0.02214850
    45  H          0.09240000       0.38760000       0.06600000
    46  H          0.90760000       0.61240000       0.93400000
    47  O          0.43906170       0.44552120       0.21799110
    48  O          0.56093830       0.55447880       0.78200890
    49  O          0.64366160       0.27617140       0.07938110
    50  O          0.35633840       0.72382860       0.92061890
    51  Cl         0.86101400       0.18053500       0.58926400
    52  Cl         0.13898600       0.81946500       0.41073600
    53  B          0.47832000       0.34402170       0.09609150
    54  B          0.52168000       0.65597830       0.90390850
    55  H          0.52330000       0.46820000       0.27320000
    56  H          0.47670000       0.53180000       0.72680000
    57  H          0.71830000       0.29720000       0.14830000
    58  H          0.28170000       0.70280000       0.85170000
