data_TAZBEE
_symmetry_space_group_name_H-M    'P1'
_symmetry_Int_Tables_number       1
loop_
_symmetry_equiv_pos_site_id
_symmetry_equiv_pos_as_xyz
1 x,y,z
_cell_length_a                   7.97539
_cell_length_b                   10.2912
_cell_length_c                   10.7303
_cell_angle_alpha                109.532
_cell_angle_beta                 105.32117
_cell_angle_gamma                104.11313
loop_
_atom_site_label
_atom_site_type_symbol
_atom_site_fract_x
_atom_site_fract_y
_atom_site_fract_z
     1  C          0.54832000       0.95216180       0.97643170
     2  C          0.45168000       0.04783820       0.02356830
     3  C          0.19382000       0.84797190       0.95881180
     4  C          0.80618000       0.15202810       0.04118820
     5  C          0.00623000       0.78312000       0.94522000
     6  C         -0.00623000       0.21688000       0.05478000
     7  C          0.92457000       0.63532000       0.89392000
     8  C          0.07543000       0.36468000       0.10608000
     9  H          0.80300000       0.59450000       0.88690000
    10  H          0.19700000       0.40550000       0.11310000
    11  C          0.29123000       0.75099190       0.91259180
    12  C          0.70877000       0.24900810       0.08740820
    13  C          0.19693000       0.59532000       0.85852000
    14  C          0.80307000       0.40468000       0.14148000
    15  H          0.25730000       0.53120000       0.82860000
    16  H          0.74270000       0.46880000       0.17140000
    17  C          0.02123000       0.54042000       0.85022000
    18  C         -0.02123000       0.45958000       0.14978000
    19  H          0.96170000       0.43860000       0.81520000
    20  H          0.03830000       0.56140000       0.18480000
    21  N          0.46482000       0.80381150       0.91943150
    22  N          0.53518000       0.19618850       0.08056850
    23  N          0.27402000      -0.00578840       0.01250150
    24  N          0.72598000       0.00578840      -0.01250150
    25  H          0.93870000       0.84820000       0.97320000
    26  H          0.06130000       0.15180000       0.02680000
    27  C          0.39852000       0.84261180       0.61038170
    28  C          0.60148000       0.15738820       0.38961830
    29  C          0.22372000       0.84430190       0.61188180
    30  C          0.77628000       0.15569810       0.38811820
    31  C          0.20163000       0.97862000       0.66722000
    32  C          0.79837000       0.02138000       0.33278000
    33  H          0.08570000       0.97870000       0.66910000
    34  H          0.91430000       0.02130000       0.33090000
    35  C          0.34693000       0.11272000       0.71992000
    36  C          0.65307000       0.88728000       0.28008000
    37  C          0.51703000       0.10968190       0.71534190
    38  C          0.48297000       0.89031810       0.28465810
    39  H          0.61560000       0.19870000       0.74910000
    40  H          0.38440000       0.80130000       0.25090000
    41  C          0.54542000       0.97789190       0.66193180
    42  C          0.45458000       0.02210810       0.33806820
    43  C          0.06033000       0.70272000       0.55512000
    44  C          0.93967000       0.29728000       0.44488000
    45  H          0.96090000       0.72410000       0.58170000
    46  H          0.03910000       0.27590000       0.41830000
    47  H          0.09750000       0.63830000       0.59430000
    48  H          0.90250000       0.36170000       0.40570000
    49  H          0.01800000       0.65500000       0.45280000
    50  H         -0.01800000       0.34500000       0.54720000
    51  C          0.31914000       0.25792000       0.77933000
    52  C          0.68086000       0.74208000       0.22067000
    53  H          0.34950000       0.29100000       0.88020000
    54  H          0.65050000       0.70900000       0.11980000
    55  H          0.19120000       0.24420000       0.73320000
    56  H          0.80880000       0.75580000       0.26680000
    57  H          0.39890000       0.33070000       0.76220000
    58  H          0.60110000       0.66930000       0.23780000
    59  C          0.73503000      -0.01878000       0.66112000
    60  C          0.26497000       0.01878000       0.33888000
    61  H          0.79040000       0.94630000       0.72810000
    62  H          0.20960000       0.05370000       0.27190000
    63  H          0.81340000       0.08080000       0.68760000
    64  H          0.18660000       0.91920000       0.31240000
    65  H          0.72210000       0.91840000       0.56710000
    66  H          0.27790000       0.08160000       0.43290000
    67  B          0.43413000       0.69312000       0.55732000
    68  B          0.56587000       0.30688000       0.44268000
    69  O          0.49812000       0.63586150       0.65060160
    70  O          0.50188000       0.36413850       0.34939840
    71  O          0.40372000       0.61831170       0.41858150
    72  O          0.59628000       0.38168830       0.58141850
    73  H          0.43140000       0.53540000       0.40030000
    74  H          0.56860000       0.46460000       0.59970000
    75  H          0.51140000       0.69230000       0.73830000
    76  H          0.48860000       0.30770000       0.26170000
