data_TAZJIQ
_symmetry_space_group_name_H-M    'P1'
_symmetry_Int_Tables_number       1
loop_
_symmetry_equiv_pos_site_id
_symmetry_equiv_pos_as_xyz
1 x,y,z
_cell_length_a                   6.77533
_cell_length_b                   24.578911
_cell_length_c                   9.48006
_cell_angle_alpha                90.0
_cell_angle_beta                 117.0154
_cell_angle_gamma                90.0
loop_
_atom_site_label
_atom_site_type_symbol
_atom_site_fract_x
_atom_site_fract_y
_atom_site_fract_z
     1  O          0.38623000       0.87262600       0.68123160
     2  O          0.61377000       0.37262600       0.81876840
     3  O          0.61377000       0.12737400       0.31876840
     4  O          0.38623000       0.62737400       0.18123160
     5  O          0.54632000       0.93547500       0.89400150
     6  O          0.45368000       0.43547500       0.60599850
     7  O          0.45368000       0.06452500       0.10599850
     8  O          0.54632000       0.56452500       0.39400150
     9  B          0.49933000       0.88528800       0.83442000
    10  B          0.50067000       0.38528800       0.66558000
    11  B          0.50067000       0.11471200       0.16558000
    12  B          0.49933000       0.61471200       0.33442000
    13  C          0.58473000       0.83659700       0.95712000
    14  C          0.41527000       0.33659700       0.54288000
    15  C          0.41527000       0.16340300       0.04288000
    16  C          0.58473000       0.66340300       0.45712000
    17  C          0.44804000       0.80019900       0.97913000
    18  C          0.55196000       0.30019900       0.52087000
    19  C          0.55196000       0.19980100       0.02087000
    20  C          0.44804000       0.69980100       0.47913000
    21  C          0.51756000       0.75744900       0.08663000
    22  C          0.48244000       0.25744900       0.41337000
    23  C          0.48244000       0.24255100       0.91337000
    24  C          0.51756000       0.74255100       0.58663000
    25  H          0.41680000       0.73380000       0.09590000
    26  H          0.58320000       0.23380000       0.40410000
    27  H          0.58320000       0.26620000       0.90410000
    28  H          0.41680000       0.76620000       0.59590000
    29  C          0.74187000       0.75160110       0.17853000
    30  C          0.25813000       0.25160110       0.32147000
    31  C          0.25813000       0.24839890       0.82147000
    32  C          0.74187000       0.74839890       0.67853000
    33  H          0.79430000       0.72360000       0.25240000
    34  H          0.20570000       0.22360000       0.24760000
    35  H          0.20570000       0.27640000       0.74760000
    36  H          0.79430000       0.77640000       0.75240000
    37  C          0.88915000       0.78603110       0.16353000
    38  C          0.11085000       0.28603110       0.33647000
    39  C          0.11085000       0.21396890       0.83647000
    40  C          0.88915000       0.71396890       0.66353000
    41  H          0.04090000       0.78180000       0.22550000
    42  H          0.95910000       0.28180000       0.27450000
    43  H          0.95910000       0.21820000       0.77450000
    44  H          0.04090000       0.71820000       0.72550000
    45  C          0.80654000       0.82669800       0.05492000
    46  C          0.19346000       0.32669800       0.44508000
    47  C          0.19346000       0.17330200       0.94508000
    48  C          0.80654000       0.67330200       0.55492000
    49  F          0.22593000       0.80768600       0.88855180
    50  F          0.77407000       0.30768600       0.61144820
    51  F          0.77407000       0.19231400       0.11144820
    52  F          0.22593000       0.69231400       0.38855180
    53  F          0.95582000       0.86040600       0.03994160
    54  F          0.04418000       0.36040600       0.46005840
    55  F          0.04418000       0.13959400       0.96005840
    56  F          0.95582000       0.63959400       0.53994160
    57  H          0.50240000       0.96261000       0.82330000
    58  H          0.49760000       0.46261000       0.67670000
    59  H          0.49760000       0.03739000       0.17670000
    60  H          0.50240000       0.53739000       0.32330000
    61  H          0.33640000       0.90061000       0.62030000
    62  H          0.66360000       0.40061000       0.87970000
    63  H          0.66360000       0.09939000       0.37970000
    64  H          0.33640000       0.59939000       0.12030000
    65  N          0.59682000       0.97825600       0.31990170
    66  N          0.40318000       0.47825600       0.18009830
    67  N          0.40318000       0.02174400       0.68009830
    68  N          0.59682000       0.52174400       0.81990170
    69  N          0.77172000       0.03837600       0.52411160
    70  N          0.22828000       0.53837600       0.97588840
    71  N          0.22828000       0.96162400       0.47588840
    72  N          0.77172000       0.46162400       0.02411160
    73  C          0.55204000       0.92809800       0.26822000
    74  C          0.44796000       0.42809800       0.23178000
    75  C          0.44796000       0.07190200       0.73178000
    76  C          0.55204000       0.57190200       0.76822000
    77  H          0.46190000       0.92270000       0.16060000
    78  H          0.53810000       0.42270000       0.33940000
    79  H          0.53810000       0.07730000       0.83940000
    80  H          0.46190000       0.57730000       0.66060000
    81  C          0.63144000       0.88238900       0.36503000
    82  C          0.36856000       0.38238900       0.13497000
    83  C          0.36856000       0.11761100       0.63497000
    84  C          0.63144000       0.61761100       0.86503000
    85  H          0.59480000       0.84760000       0.32240000
    86  H          0.40520000       0.34760000       0.17760000
    87  H          0.40520000       0.15240000       0.67760000
    88  H          0.59480000       0.65240000       0.82240000
    89  C          0.76204000       0.88945900       0.52123000
    90  C          0.23796000       0.38945900       0.97877000
    91  C          0.23796000       0.11054100       0.47877000
    92  C          0.76204000       0.61054100       0.02123000
    93  H          0.81650000       0.85940000       0.58740000
    94  H          0.18350000       0.35940000       0.91260000
    95  H          0.18350000       0.14060000       0.41260000
    96  H          0.81650000       0.64060000       0.08740000
    97  C          0.81543000       0.94199800       0.58352000
    98  C          0.18457000       0.44199800       0.91648000
    99  C          0.18457000       0.05800200       0.41648000
   100  C          0.81543000       0.55800200       0.08352000
   101  C          0.95193000       0.95469120       0.74403000
   102  C          0.04807000       0.45469120       0.75597000
   103  C          0.04807000       0.04530880       0.25597000
   104  C          0.95193000       0.54530880       0.24403000
   105  H          0.01160000       0.92700000       0.81850000
   106  H         -0.01160000       0.42700000       0.68150000
   107  H         -0.01160000       0.07300000       0.18150000
   108  H          0.01160000       0.57300000       0.31850000
   109  C         -0.00457000       0.00713120       0.78872000
   110  C          0.00457000       0.50713120       0.71128000
   111  C          0.00457000       0.99286880       0.21128000
   112  C         -0.00457000       0.49286880       0.28872000
   113  H          0.08660000       0.01610000       0.89390000
   114  H          0.91340000       0.51610000       0.60610000
   115  H          0.91340000       0.98390000       0.10610000
   116  H          0.08660000       0.48390000       0.39390000
   117  C          0.90133000       0.04751900       0.67492000
   118  C          0.09867000       0.54751900       0.82508000
   119  C          0.09867000       0.95248100       0.32508000
   120  C          0.90133000       0.45248100       0.17492000
   121  H          0.93230000       0.08350000       0.70770000
   122  H          0.06770000       0.58350000       0.79230000
   123  H          0.06770000       0.91650000       0.29230000
   124  H          0.93230000       0.41650000       0.20770000
   125  C          0.72823000       0.98555700       0.47708190
   126  C          0.27177000       0.48555700       0.02291810
   127  C          0.27177000       0.01444300       0.52291810
   128  C          0.72823000       0.51444300       0.97708190
