data_TCNBTP
_symmetry_space_group_name_H-M    'P1'
_symmetry_Int_Tables_number       1
loop_
_symmetry_equiv_pos_site_id
_symmetry_equiv_pos_as_xyz
1 x,y,z
_cell_length_a                   8.3515
_cell_length_b                   17.4454
_cell_length_c                   8.0204
_cell_angle_alpha                97.353
_cell_angle_beta                 103.104
_cell_angle_gamma                88.154
loop_
_atom_site_label
_atom_site_type_symbol
_atom_site_fract_x
_atom_site_fract_y
_atom_site_fract_z
     1  S          0.20530000       0.38040000       0.23240000
     2  S          0.79470000       0.61960000       0.76760000
     3  S          0.56280000       0.79280000       0.53960000
     4  S          0.43720000       0.20720000       0.46040000
     5  C          0.34980000       0.42650000       0.16510000
     6  C          0.65020000       0.57350000       0.83490000
     7  C          0.17200000       0.44710000       0.39720000
     8  C          0.82800000       0.55290000       0.60280000
     9  C          0.41030000       0.49720000       0.22850000
    10  C          0.58970000       0.50280000       0.77150000
    11  C          0.24300000       0.51720000       0.44170000
    12  C          0.75700000       0.48280000       0.55830000
    13  C          0.35700000       0.54690000       0.36090000
    14  C          0.64300000       0.45310000       0.63910000
    15  C          0.41930000       0.62360000       0.41480000
    16  C          0.58070000       0.37640000       0.58520000
    17  C          0.54720000       0.65310000       0.34690000
    18  C          0.45280000       0.34690000       0.65310000
    19  C          0.36250000       0.67340000       0.53960000
    20  C          0.63750000       0.32660000       0.46040000
    21  C          0.61580000       0.72410000       0.39120000
    22  C          0.38420000       0.27590000       0.60880000
    23  C          0.41160000       0.74770000       0.60080000
    24  C          0.58840000       0.25230000       0.39920000
    25  H          0.38900000       0.39300000       0.08450000
    26  H          0.61100000       0.60700000       0.91550000
    27  H          0.10030000       0.42800000       0.46410000
    28  H          0.89970000       0.57200000       0.53590000
    29  H          0.50280000       0.51680000       0.18500000
    30  H          0.49720000       0.48320000       0.81500000
    31  H          0.21640000       0.55080000       0.54480000
    32  H          0.78360000       0.44920000       0.45520000
    33  H          0.57950000       0.62230000       0.26300000
    34  H          0.42050000       0.37770000       0.73700000
    35  H          0.28600000       0.66200000       0.57920000
    36  H          0.71400000       0.33800000       0.42080000
    37  H          0.69870000       0.75360000       0.33860000
    38  H          0.30130000       0.24640000       0.66140000
    39  H          0.37660000       0.78390000       0.69550000
    40  H          0.62340000       0.21610000       0.30450000
    41  C          0.20430000       0.19170000       0.02940000
    42  C          0.79570000       0.80830000       0.97060000
    43  C          0.08880000       0.15400000       0.09890000
    44  C          0.91120000       0.84600000       0.90110000
    45  C          0.02190000       0.20330000       0.22410000
    46  C          0.97810000       0.79670000       0.77590000
    47  C          0.11660000       0.03050000       0.92620000
    48  C          0.88340000       0.96950000       0.07380000
    49  C          0.04720000       0.07810000       0.04980000
    50  C          0.95280000       0.92190000       0.95020000
    51  C          0.92740000       0.04430000       0.12170000
    52  C          0.07260000       0.95570000       0.87830000
    53  N          0.29950000       0.22280000       0.97990000
    54  N          0.70050000       0.77720000       0.02010000
    55  N          0.96490000       0.24470000       0.31890000
    56  N          0.03510000       0.75530000       0.68110000
    57  H          0.20310000       0.05220000       0.87870000
    58  H          0.79690000       0.94780000       0.12130000
    59  H          0.87120000       0.07560000       0.19700000
    60  H          0.12880000       0.92440000       0.80300000
    61  C          0.55410000       0.97230000       0.74140000
    62  C          0.44590000       0.02770000       0.25860000
    63  C          0.66950000       0.00890000       0.67070000
    64  C          0.33050000      -0.00890000       0.32930000
    65  C          0.74380000       0.96150000       0.55230000
    66  C          0.25620000       0.03850000       0.44770000
    67  C          0.64100000       0.13520000       0.84240000
    68  C          0.35900000       0.86480000       0.15760000
    69  C          0.71270000       0.08720000       0.71840000
    70  C          0.28730000       0.91280000       0.28160000
    71  C          0.83270000       0.12210000       0.64920000
    72  C          0.16730000       0.87790000       0.35080000
    73  C          0.68750000       0.20990000       0.89120000
    74  C          0.31250000       0.79010000       0.10880000
    75  C          0.80850000       0.24440000       0.82400000
    76  C          0.19150000       0.75560000       0.17600000
    77  C          0.87580000       0.19640000       0.69960000
    78  C          0.12420000       0.80360000       0.30040000
    79  C          0.79350000       0.37010000       0.00230000
    80  C          0.20650000       0.62990000      -0.00230000
    81  C          0.85660000       0.32240000       0.87530000
    82  C          0.14340000       0.67760000       0.12470000
    83  C          0.97850000       0.35570000       0.80850000
    84  C          0.02150000       0.64430000       0.19150000
    85  N          0.46270000       0.94050000       0.79340000
    86  N          0.53730000       0.05950000       0.20660000
    87  N          0.80040000       0.92110000       0.45520000
    88  N          0.19960000       0.07890000       0.54480000
    89  N          0.74180000       0.40620000       0.10760000
    90  N          0.25820000       0.59380000       0.89240000
    91  N          0.07610000       0.38330000       0.75260000
    92  N          0.92390000       0.61670000       0.24740000
    93  H          0.56150000       0.10650000       0.89230000
    94  H          0.43850000       0.89350000       0.10770000
    95  H          0.87270000       0.08370000       0.55810000
    96  H          0.12730000       0.91630000       0.44190000
    97  H          0.65260000       0.23550000       0.97380000
    98  H          0.34740000       0.76450000       0.02620000
    99  H          0.95640000       0.21010000       0.65280000
   100  H          0.04360000       0.78990000       0.34720000
