data_TCQPDA
_symmetry_space_group_name_H-M    'P1'
_symmetry_Int_Tables_number       1
loop_
_symmetry_equiv_pos_site_id
_symmetry_equiv_pos_as_xyz
1 x,y,z
_cell_length_a                   7.7825
_cell_length_b                   15.0201
_cell_length_c                   6.4881
_cell_angle_alpha                93.525
_cell_angle_beta                 102.775
_cell_angle_gamma                82.975
loop_
_atom_site_label
_atom_site_type_symbol
_atom_site_fract_x
_atom_site_fract_y
_atom_site_fract_z
     1  C          0.02795000       0.02288000       0.25932000
     2  C          0.97205000       0.97712000       0.74068000
     3  C          0.87518000       0.69894000       0.17462000
     4  C          0.12482000       0.30106000       0.82538000
     5  C          0.29898000       0.09982000       0.33227000
     6  C          0.70102000       0.90018000       0.66773000
     7  C          0.01580000       0.18832000       0.28782000
     8  C         -0.01580000       0.81168000       0.71218000
     9  C          0.83849000       0.02656000       0.21745000
    10  C          0.16151000       0.97344000       0.78255000
    11  C          0.75875000       0.95026000       0.18743000
    12  C          0.24125000       0.04974000       0.81257000
    13  C          0.85993000       0.86384000       0.19422000
    14  C          0.14007000       0.13616000       0.80578000
    15  C          0.04877000       0.86047000       0.23489000
    16  C          0.95123000       0.13953000       0.76511000
    17  C          0.12925000       0.93661000       0.26700000
    18  C          0.87075000       0.06339000       0.73300000
    19  C          0.77705000       0.78523000       0.16446000
    20  C          0.22295000       0.21477000       0.83554000
    21  C          0.11112000       0.10096000       0.29120000
    22  C          0.88888000       0.89904000       0.70880000
    23  C          0.58922000       0.78732000       0.12609000
    24  C          0.41078000       0.21268000       0.87391000
    25  H          0.76370000       0.08620000       0.20700000
    26  H          0.23630000       0.91380000       0.79300000
    27  H          0.62660000       0.95470000       0.15860000
    28  H          0.37340000       0.04530000       0.84140000
    29  H          0.12390000       0.80110000       0.24500000
    30  H          0.87610000       0.19890000       0.75500000
    31  H          0.26260000       0.93160000       0.29570000
    32  H          0.73740000       0.06840000       0.70430000
    33  N          0.43903000       0.78815000       0.09717000
    34  N          0.56097000       0.21185000       0.90283000
    35  N          0.95199000       0.62904000       0.18393000
    36  N          0.04801000       0.37096000       0.81607000
    37  N          0.44891000       0.10135000       0.36370000
    38  N          0.55109000       0.89865000       0.63630000
    39  N          0.94510000       0.25933000       0.28757000
    40  N          0.05490000       0.74067000       0.71243000
    41  C          0.33952000       0.52447000       0.05634000
    42  C          0.66048000       0.47553000       0.94366000
    43  C          0.45677000       0.45473000       0.16144000
    44  C          0.54323000       0.54527000       0.83856000
    45  C          0.38182000       0.56863000       0.90137000
    46  C          0.61818000       0.43137000       0.09863000
    47  C          0.24427000       0.42931000       0.37445000
    48  C          0.75573000       0.57069000       0.62555000
    49  C          0.53129000       0.33755000       0.42310000
    50  C          0.46871000       0.66245000       0.57690000
    51  H          0.22130000       0.54140000       0.09790000
    52  H          0.77870000       0.45860000       0.90210000
    53  H          0.29760000       0.61940000       0.83180000
    54  H          0.70240000       0.38060000       0.16820000
    55  H          0.23570000       0.39200000       0.49000000
    56  H          0.76430000       0.60800000       0.51000000
    57  H          0.14700000       0.42300000       0.24450000
    58  H          0.85300000       0.57700000       0.75550000
    59  H          0.22380000       0.48750000       0.42250000
    60  H          0.77620000       0.51250000       0.57750000
    61  H          0.48500000       0.31290000       0.52900000
    62  H          0.51500000       0.68710000       0.47100000
    63  H          0.64000000       0.35570000       0.49500000
    64  H          0.36000000       0.64430000       0.50500000
    65  H          0.56150000       0.28970000       0.31450000
    66  H          0.43850000       0.71030000       0.68550000
    67  N          0.41549000       0.41167000       0.32091000
    68  N          0.58451000       0.58833000       0.67909000
