data_TDHBZD
_symmetry_space_group_name_H-M    'P1'
_symmetry_Int_Tables_number       1
loop_
_symmetry_equiv_pos_site_id
_symmetry_equiv_pos_as_xyz
1 x,y,z
_cell_length_a                   9.3975
_cell_length_b                   9.2295
_cell_length_c                   12.9383
_cell_angle_alpha                95.933
_cell_angle_beta                 84.814
_cell_angle_gamma                106.836
loop_
_atom_site_label
_atom_site_type_symbol
_atom_site_fract_x
_atom_site_fract_y
_atom_site_fract_z
     1  C          0.00320000       0.69030000       0.19420000
     2  C         -0.00320000       0.30970000       0.80580000
     3  C          0.93580000       0.53380000       0.18490000
     4  C          0.06420000       0.46620000       0.81510000
     5  C          0.88690000       0.45030000       0.26990000
     6  C          0.11310000       0.54970000       0.73010000
     7  C          0.90250000       0.52250000       0.36890000
     8  C          0.09750000       0.47750000       0.63110000
     9  C          0.96860000       0.67640000       0.38120000
    10  C          0.03140000       0.32360000       0.61880000
    11  C          0.02040000       0.76150000       0.29540000
    12  C          0.97960000       0.23850000       0.70460000
    13  C          0.09210000       0.92090000       0.31520000
    14  C          0.90790000       0.07910000       0.68480000
    15  C          0.41520000       0.24090000       0.35050000
    16  C          0.58480000       0.75910000       0.64950000
    17  C          0.49260000       0.39470000       0.36100000
    18  C          0.50740000       0.60530000       0.63900000
    19  C          0.42380000       0.50710000       0.36120000
    20  C          0.57620000       0.49290000       0.63880000
    21  C          0.27260000       0.46980000       0.35120000
    22  C          0.72740000       0.53020000       0.64880000
    23  C          0.19170000       0.31910000       0.34220000
    24  C          0.80830000       0.68090000       0.65780000
    25  C          0.25980000       0.20290000       0.34180000
    26  C          0.74020000       0.79710000       0.65820000
    27  C          0.16620000       0.04860000       0.33170000
    28  C          0.83380000       0.95140000       0.66830000
    29  C          0.50320000       0.13020000       0.35230000
    30  C          0.49680000       0.86980000       0.64770000
    31  C          0.60570000       0.15860000       0.42920000
    32  C          0.39430000       0.84140000       0.57080000
    33  C          0.69950000       0.06980000       0.43500000
    34  C          0.30050000       0.93020000       0.56500000
    35  C          0.69430000       0.94940000       0.36260000
    36  C          0.30570000       0.05060000       0.63740000
    37  C          0.59480000       0.91650000       0.28590000
    38  C          0.40520000       0.08350000       0.71410000
    39  C          0.49800000       0.00550000       0.27960000
    40  C          0.50200000      -0.00550000       0.72040000
    41  C          0.39590000       0.96140000       0.19790000
    42  C          0.60410000       0.03860000       0.80210000
    43  C          0.04250000       0.76930000       0.09630000
    44  C          0.95750000       0.23070000       0.90370000
    45  C          0.93110000       0.73640000       0.02530000
    46  C          0.06890000       0.26360000       0.97470000
    47  C          0.95710000       0.79810000       0.92980000
    48  C          0.04290000       0.20190000       0.07020000
    49  C          0.09550000       0.89220000       0.90240000
    50  C          0.90450000       0.10780000       0.09760000
    51  C          0.20750000       0.92730000       0.97050000
    52  C          0.79250000       0.07270000       0.02950000
    53  C          0.18250000       0.86860000       0.06810000
    54  C          0.81750000       0.13140000       0.93190000
    55  C          0.30280000       0.91460000       0.13660000
    56  C          0.69720000       0.08540000       0.86340000
    57  H          0.92200000       0.48600000       0.11300000
    58  H          0.07800000       0.51400000       0.88700000
    59  H          0.83600000       0.34000000       0.26300000
    60  H          0.16400000       0.66000000       0.73700000
    61  H          0.86500000       0.46300000       0.43100000
    62  H          0.13500000       0.53700000       0.56900000
    63  H          0.97900000       0.73300000       0.45000000
    64  H          0.02100000       0.26700000       0.55000000
    65  H          0.60400000       0.42100000       0.36400000
    66  H          0.39600000       0.57900000       0.63600000
    67  H          0.48400000       0.61300000       0.36300000
    68  H          0.51600000       0.38700000       0.63700000
    69  H          0.22000000       0.54900000       0.35300000
    70  H          0.78000000       0.45100000       0.64700000
    71  H          0.08500000       0.28600000       0.33300000
    72  H          0.91500000       0.71400000       0.66700000
    73  H          0.60600000       0.24300000       0.47900000
    74  H          0.39400000       0.75700000       0.52100000
    75  H          0.76800000       0.09700000       0.49200000
    76  H          0.23200000       0.90300000       0.50800000
    77  H          0.75800000       0.88300000       0.36400000
    78  H          0.24200000       0.11700000       0.63600000
    79  H          0.56800000       0.82900000       0.23000000
    80  H          0.43200000       0.17100000       0.77000000
    81  H          0.82900000       0.66400000       0.04300000
    82  H          0.17100000       0.33600000       0.95700000
    83  H          0.87300000       0.77600000       0.88400000
    84  H          0.12700000       0.22400000       0.11600000
    85  H          0.11600000       0.93700000       0.83600000
    86  H          0.88400000       0.06300000       0.16400000
    87  H          0.30700000      -0.00100000       0.95200000
    88  H          0.69300000       0.00100000       0.04800000
    89  C          0.45000000       0.42090000       0.08570000
    90  C          0.55000000       0.57910000       0.91430000
    91  C          0.53840000       0.37070000       0.01030000
    92  C          0.46160000       0.62930000      -0.01030000
    93  C          0.41210000       0.55050000       0.07470000
    94  C          0.58790000       0.44950000       0.92530000
    95  H          0.41200000       0.36400000       0.15000000
    96  H          0.58800000       0.63600000       0.85000000
    97  H          0.57000000       0.27900000       0.01800000
    98  H          0.43000000       0.72100000       0.98200000
    99  H          0.35600000       0.58900000       0.13000000
   100  H          0.64400000       0.41100000       0.87000000
