data_TEBGOZ
_symmetry_space_group_name_H-M    'P1'
_symmetry_Int_Tables_number       1
loop_
_symmetry_equiv_pos_site_id
_symmetry_equiv_pos_as_xyz
1 x,y,z
_cell_length_a                   4.68153
_cell_length_b                   8.67436
_cell_length_c                   10.30616
_cell_angle_alpha                71.1476
_cell_angle_beta                 81.8305
_cell_angle_gamma                88.3586
loop_
_atom_site_label
_atom_site_type_symbol
_atom_site_fract_x
_atom_site_fract_y
_atom_site_fract_z
     1  O          0.32776000       0.30093000       0.39693000
     2  O          0.67224000       0.69907000       0.60307000
     3  C          0.16917000       0.39344000       0.43963000
     4  C          0.83083000       0.60656000       0.56037000
     5  O          0.62856000       0.70553000       0.34733000
     6  O          0.37144000       0.29447000       0.65267000
     7  H          0.54918000       0.75690000       0.39780000
     8  H          0.45082000       0.24310000       0.60220000
     9  C          0.96587000       0.49894000       0.36043000
    10  C          0.03413000       0.50106000       0.63957000
    11  C          0.93388000       0.49234000       0.21924000
    12  C          0.06612000       0.50766000       0.78076000
    13  H          0.73680000       0.51770000       0.20170000
    14  H          0.26320000       0.48230000       0.79830000
    15  H          0.97200000       0.38280000       0.21650000
    16  H          0.02800000       0.61720000       0.78350000
    17  C          0.80977000       0.60304000       0.41644000
    18  C          0.19023000       0.39696000       0.58356000
    19  Br         0.19677900       0.64520500       0.07500400
    20  Br         0.80322100       0.35479500       0.92499600
    21  H          0.45118000       0.24490000       0.60380000
    22  H          0.54882000       0.75510000       0.39620000
    23  O          0.90924000       0.08183000       0.32303000
    24  O          0.09076000       0.91817000       0.67697000
    25  H          0.84984000       0.08090000       0.41180000
    26  H          0.15016000       0.91910000       0.58820000
    27  O          0.25866000       0.92303000       0.41763000
    28  O          0.74134000       0.07697000       0.58237000
    29  C          0.15487000       0.00864000       0.31444000
    30  C          0.84513000      -0.00864000       0.68556000
    31  C          0.29971000       0.03556000       0.17005000
    32  C          0.70029000       0.96444000       0.82995000
    33  H          0.30040000       0.14950000       0.11830000
    34  H          0.69960000       0.85050000       0.88170000
    35  H          0.19710000       0.97580000       0.12670000
    36  H          0.80290000       0.02420000       0.87330000
    37  H          0.49470000      -0.00150000       0.17210000
    38  H          0.50530000       0.00150000       0.82790000
