data_TECCAF02
_symmetry_space_group_name_H-M    'P1'
_symmetry_Int_Tables_number       1
loop_
_symmetry_equiv_pos_site_id
_symmetry_equiv_pos_as_xyz
1 x,y,z
_cell_length_a                   8.1233
_cell_length_b                   9.7083
_cell_length_c                   6.7912
_cell_angle_alpha                110.732
_cell_angle_beta                 108.892
_cell_angle_gamma                79.113
loop_
_atom_site_label
_atom_site_type_symbol
_atom_site_fract_x
_atom_site_fract_y
_atom_site_fract_z
     1  Cl         0.75469000       0.15531000       0.30241000
     2  Cl         0.24531000       0.84469000       0.69759000
     3  Cl         0.60259000       0.06841000       0.78329000
     4  Cl         0.39741000       0.93159000       0.21671000
     5  O          0.13422000       0.09642000       0.43552000
     6  O          0.86578000       0.90358000       0.56448000
     7  C          0.88308000       0.07332000       0.13003000
     8  C          0.11692000       0.92668000       0.86997000
     9  C          0.07202000       0.04882000       0.23822000
    10  C          0.92798000       0.95118000       0.76178000
    11  C          0.81768000       0.03302000       0.91107000
    12  C          0.18232000       0.96698000       0.08893000
    13  N          0.01372000       0.25292000       0.84008000
    14  N         -0.01372000       0.74708000       0.15992000
    15  C          0.08472000       0.31812000       0.06313000
    16  C          0.91528000       0.68188000       0.93687000
    17  C          0.97638000       0.40252000       0.19822000
    18  C          0.02362000       0.59748000       0.80178000
    19  C          0.79328000       0.43452000       0.11323000
    20  C          0.20672000       0.56548000       0.88677000
    21  C          0.69338000       0.51502000       0.24683000
    22  C          0.30662000       0.48498000       0.75317000
    23  C          0.76528000       0.57082000       0.47933000
    24  C          0.23472000       0.42918000       0.52067000
    25  C          0.66328000       0.65172000       0.62013000
    26  C          0.33672000       0.34828000       0.37987000
    27  C          0.26393000       0.29392000       0.15683000
    28  C          0.73607000       0.70608000       0.84317000
    29  C          0.05302000       0.45783000       0.42942000
    30  C          0.94698000       0.54217000       0.57058000
