data_TECNAQ
_symmetry_space_group_name_H-M    'P1'
_symmetry_Int_Tables_number       1
loop_
_symmetry_equiv_pos_site_id
_symmetry_equiv_pos_as_xyz
1 x,y,z
_cell_length_a                   6.47601
_cell_length_b                   11.3403
_cell_length_c                   15.6373
_cell_angle_alpha                99.982
_cell_angle_beta                 95.992
_cell_angle_gamma                85.052
loop_
_atom_site_label
_atom_site_type_symbol
_atom_site_fract_x
_atom_site_fract_y
_atom_site_fract_z
     1  S          0.61386000       0.79883000       0.05292000
     2  S          0.38614000       0.20117000       0.94708000
     3  C          0.46471800       0.06281100       0.18317000
     4  C          0.53528200       0.93718900       0.81683000
     5  C          0.43202200       0.18051300       0.17178000
     6  C          0.56797800       0.81948700       0.82822000
     7  C          0.59332600       0.25211200       0.19171000
     8  C          0.40667400       0.74788800       0.80829000
     9  C          0.78342200       0.20881200       0.22359000
    10  C          0.21657800       0.79118800       0.77641000
    11  C          0.81141800       0.09251000       0.23667000
    12  C          0.18858200       0.90749000       0.76333000
    13  C          0.68271700       0.89241000       0.22769000
    14  C          0.31728300       0.10759000       0.77231000
    15  C          0.78591900       0.81791000       0.15548000
    16  C          0.21408100       0.18209000       0.84452000
    17  C          0.44262300       0.69951100       0.07209000
    18  C          0.55737700       0.30048900       0.92791000
    19  N          0.65161400       0.02118000       0.21646000
    20  N          0.34838600       0.97882000       0.78354000
    21  N          0.25541700       0.70389000       0.02807000
    22  N          0.74458300       0.29611000       0.97193000
    23  N          0.49541600       0.61341000       0.11608000
    24  N          0.50458400       0.38659000       0.88392000
    25  H          0.35810000       0.01140000       0.17190000
    26  H          0.64190000      -0.01140000       0.82810000
    27  H          0.28460000       0.22590000       0.15030000
    28  H          0.71540000       0.77410000       0.84970000
    29  H          0.60430000       0.34340000       0.18280000
    30  H          0.39570000       0.65660000       0.81720000
    31  H          0.90240000       0.24540000       0.23080000
    32  H          0.09760000       0.75460000       0.76920000
    33  H          0.93820000       0.05340000       0.26340000
    34  H          0.06180000       0.94660000       0.73660000
    35  H          0.55920000       0.85370000       0.23910000
    36  H          0.44080000       0.14630000       0.76090000
    37  H          0.80420000       0.89500000       0.28040000
    38  H          0.19580000       0.10500000       0.71960000
    39  H          0.89210000       0.83820000       0.12430000
    40  H          0.10790000       0.16180000       0.87570000
    41  H          0.83260000       0.73970000       0.16590000
    42  H          0.16740000       0.26030000       0.83410000
    43  H          0.16290000       0.62800000       0.02090000
    44  H          0.83710000       0.37200000       0.97910000
    45  H          0.17800000       0.79390000       0.01510000
    46  H          0.82200000       0.20610000       0.98490000
    47  H          0.38800000       0.57800000       0.12880000
    48  H          0.61200000       0.42200000       0.87120000
    49  H          0.62700000       0.60600000       0.13910000
    50  H          0.37300000       0.39400000       0.86090000
    51  C          0.23981500       0.71061000       0.46127000
    52  C          0.76018500       0.28939000       0.53873000
    53  C          0.26081700       0.68651100       0.54957000
    54  C          0.73918300       0.31348900       0.45043000
    55  C          0.26721600       0.57201100       0.56427000
    56  C          0.73278400       0.42798900       0.43573000
    57  C          0.25271600       0.47151000       0.49838000
    58  C          0.74728400       0.52849000       0.50162000
    59  C          0.23281800       0.49651000       0.41207000
    60  C          0.76718200       0.50349000       0.58793000
    61  C          0.22681600       0.60911100       0.39488000
    62  C          0.77318400       0.39088900       0.60512000
    63  C          0.23631800       0.82651100       0.44329000
    64  C          0.76368200       0.17348900       0.55671000
    65  C          0.21441800       0.85091000       0.35749000
    66  C          0.78558200       0.14909000       0.64251000
    67  C          0.24751900       0.92921200       0.51078000
    68  C          0.75248100       0.07078800       0.48922000
    69  C          0.26181700       0.35591100       0.51388000
    70  C          0.73818300       0.64408900       0.48612000
    71  C          0.24421800       0.25051200       0.44489000
    72  C          0.75578200       0.74948800       0.55511000
    73  C          0.28651900       0.33011000       0.60089000
    74  C          0.71348100       0.66989000       0.39911000
    75  N          0.20251500       0.86869000       0.28656000
    76  N          0.79748500       0.13131000       0.71344000
    77  N          0.26022000       0.00761000       0.56708000
    78  N          0.73978000      -0.00761000       0.43292000
    79  N          0.22971800       0.17691000       0.38638000
    80  N          0.77028200       0.82309000       0.61362000
    81  N          0.30181700       0.31841000       0.67317000
    82  N          0.69818300       0.68159000       0.32683000
    83  H          0.25870000       0.76600000       0.60020000
    84  H          0.74130000       0.23400000       0.39980000
    85  H          0.29750000       0.55490000       0.61910000
    86  H          0.70250000       0.44510000       0.38090000
    87  H          0.22260000       0.42840000       0.36570000
    88  H          0.77740000       0.57160000       0.63430000
    89  H          0.20420000       0.62590000       0.33540000
    90  H          0.79580000       0.37410000       0.66460000
    91  I          0.00000000       0.00000000      -0.00000000
    92  I          0.04527140       0.47245800       0.14848600
    93  I          0.95472860       0.52754200       0.85151400
