data_TEHFAR
_symmetry_space_group_name_H-M    'P1'
_symmetry_Int_Tables_number       1
loop_
_symmetry_equiv_pos_site_id
_symmetry_equiv_pos_as_xyz
1 x,y,z
_cell_length_a                   5.338311
_cell_length_b                   24.4145
_cell_length_c                   11.2922
_cell_angle_alpha                90.0
_cell_angle_beta                 93.383
_cell_angle_gamma                90.0
loop_
_atom_site_label
_atom_site_type_symbol
_atom_site_fract_x
_atom_site_fract_y
_atom_site_fract_z
     1  S          0.26543500       0.34939200       0.97404800
     2  S          0.23456500       0.84939200       0.52595200
     3  S          0.73456500       0.65060800       0.02595200
     4  S          0.76543500       0.15060800       0.47404800
     5  O          0.34517160       0.29256300      -0.00451800
     6  O          0.15482840       0.79256300       0.50451800
     7  O          0.65482840       0.70743700       0.00451800
     8  O          0.84517160       0.20743700       0.49548200
     9  O          0.01928160       0.35950400       0.01738800
    10  O          0.48071840       0.85950400       0.48261200
    11  O         -0.01928160       0.64049600       0.98261200
    12  O          0.51928160       0.14049600       0.51738800
    13  O          0.29233170       0.36554400       0.85237300
    14  O          0.20766830       0.86554400       0.64762700
    15  O          0.70766830       0.63445600       0.14762700
    16  O          0.79233170       0.13445600       0.35237300
    17  N          0.45652000       0.39032400       0.05329100
    18  N          0.04348000       0.89032400       0.44670900
    19  N          0.54348000       0.60967600       0.94670900
    20  N          0.95652000       0.10967600       0.55329100
    21  H          0.61430000       0.38256000       0.03571400
    22  H          0.88570000       0.88256000       0.46428600
    23  H          0.38570000       0.61744000       0.96428600
    24  H          0.11430000       0.11744000       0.53571400
    25  H          0.44330000       0.38416000       0.12831600
    26  H          0.05670000       0.88416000       0.37168400
    27  H          0.55670000       0.61584000       0.87168400
    28  H          0.94330000       0.11584000       0.62831600
    29  O          0.82805820       0.34019400       0.35066900
    30  O          0.67194180       0.84019400       0.14933100
    31  O          0.17194180       0.65980600       0.64933100
    32  O          0.32805820       0.15980600       0.85066900
    33  H          0.92188200       0.36597000       0.41191600
    34  H          0.57811800       0.86597000       0.08808400
    35  H          0.07811800       0.63403000       0.58808400
    36  H          0.42188200       0.13403000       0.91191600
    37  O          0.21099150       0.32701300       0.28362700
    38  O          0.28900850       0.82701300       0.21637300
    39  O          0.78900850       0.67298700       0.71637300
    40  O          0.71099150       0.17298700       0.78362700
    41  C         -0.01092000       0.31525400       0.28896900
    42  C          0.51092000       0.81525400       0.21103100
    43  C          0.01092000       0.68474600       0.71103100
    44  C          0.48908000       0.18474600       0.78896900
    45  C          0.87018000       0.26794400       0.22020900
    46  C          0.62982000       0.76794400       0.27979100
    47  C          0.12982000       0.73205600       0.77979100
    48  C          0.37018000       0.23205600       0.72020900
    49  H          0.79874100       0.24196800       0.27648500
    50  H          0.70125900       0.74196800       0.22351500
    51  H          0.20125900       0.75803200       0.72351500
    52  H          0.29874100       0.25803200       0.77648500
    53  H          0.73053100       0.28195200       0.16705300
    54  H          0.76946900       0.78195200       0.33294700
    55  H          0.26946900       0.71804800       0.83294700
    56  H          0.23053100       0.21804800       0.66705300
    57  N          0.05056170       0.23826400       0.14815800
    58  N          0.44943830       0.73826400       0.35184200
    59  N          0.94943830       0.76173600       0.85184200
    60  N          0.55056170       0.26173600       0.64815800
    61  H          0.14837800       0.26623500       0.10556200
    62  H          0.35162200       0.76623500       0.39443800
    63  H          0.85162200       0.73376500       0.89443800
    64  H          0.64837800       0.23376500       0.60556200
    65  C          0.91167000       0.20381700       0.05673140
    66  C          0.58833000       0.70381700       0.44326860
    67  C          0.08833000       0.79618300       0.94326860
    68  C          0.41167000       0.29618300       0.55673140
    69  H          0.03078100       0.18784100       0.00363400
    70  H          0.46921900       0.68784100       0.49636600
    71  H          0.96921900       0.81215900      -0.00363400
    72  H          0.53078100       0.31215900       0.50363400
    73  H          0.79025200       0.22657200       0.01062900
    74  H          0.70974800       0.72657200       0.48937100
    75  H          0.20974800       0.77342800      -0.01062900
    76  H          0.29025200       0.27342800       0.51062900
    77  H          0.82299800       0.17440600       0.09595400
    78  H          0.67700200       0.67440600       0.40404600
    79  H          0.17700200       0.82559400       0.90404600
    80  H          0.32299800       0.32559400       0.59595400
    81  C          0.23262000       0.20458500       0.22199130
    82  C          0.26738000       0.70458500       0.27800870
    83  C          0.76738000       0.79541500       0.77800870
    84  C          0.73262000       0.29541500       0.72199130
    85  H          0.35201000       0.18730800       0.17088500
    86  H          0.14799000       0.68730800       0.32911500
    87  H          0.64799000       0.81269200       0.82911500
    88  H          0.85201000       0.31269200       0.67088500
    89  H          0.14199000       0.17619000       0.26343700
    90  H          0.35801000       0.67619000       0.23656300
    91  H          0.85801000       0.82381000       0.73656300
    92  H          0.64199000       0.32381000       0.76343700
    93  H          0.32366800       0.22810100       0.28022100
    94  H          0.17633200       0.72810100       0.21977900
    95  H          0.67633200       0.77189900       0.71977900
    96  H          0.82366800       0.27189900       0.78022100
    97  O         -0.01773190       0.60393400       0.48899900
    98  O          0.51773190       0.10393400       0.01100100
    99  O          0.01773190       0.39606600       0.51100100
   100  O          0.48226810       0.89606600      -0.01100100
   101  O          0.30861190       0.54975400       0.45548900
   102  O          0.19138810       0.04975400       0.04451100
   103  O          0.69138810       0.45024600       0.54451100
   104  O          0.80861190       0.95024600       0.95548900
   105  C          0.09462000       0.56694400       0.43434900
   106  C          0.40538000       0.06694400       0.06565100
   107  C          0.90538000       0.43305600       0.56565100
   108  C          0.59462000       0.93305600       0.93434900
   109  C          0.93138000       0.54227400       0.33292900
   110  C          0.56862000       0.04227400       0.16707100
   111  C          0.06862000       0.45772600       0.66707100
   112  C          0.43138000       0.95772600       0.83292900
   113  H          0.79908000       0.51946100       0.36600700
   114  H          0.70092000       0.01946100       0.13399300
   115  H          0.20092000       0.48053900       0.63399300
   116  H          0.29908000       0.98053900       0.86600700
   117  H          0.84810500       0.57214600       0.28624700
   118  H          0.65189500       0.07214600       0.21375300
   119  H          0.15189500       0.42785400       0.71375300
   120  H          0.34810500       0.92785400       0.78624700
   121  N          0.07889160       0.50811400       0.25316800
   122  N          0.42110840       0.00811400       0.24683200
   123  N          0.92110840       0.49188600       0.74683200
   124  N          0.57889160       0.99188600       0.75316800
   125  H          0.18930000       0.48367000       0.29741600
   126  H          0.31070000       0.98367000       0.20258400
   127  H          0.81070000       0.51633000       0.70258400
   128  H          0.68930000       0.01633000       0.79741600
   129  C          0.90888000       0.47363600       0.17464120
   130  C          0.59112000       0.97363600       0.32535880
   131  C          0.09112000       0.52636400       0.82535880
   132  C          0.40888000       0.02636400       0.67464120
   133  H          0.00928000       0.44890900       0.12814000
   134  H          0.49072000       0.94890900       0.37186000
   135  H         -0.00928000       0.55109100       0.87186000
   136  H          0.50928000       0.05109100       0.62814000
   137  H          0.80653000       0.49725700       0.12091100
   138  H          0.69347000      -0.00274300       0.37908900
   139  H          0.19347000       0.50274300       0.87908900
   140  H          0.30653000       0.00274300       0.62091100
   141  H          0.79910000       0.45205400       0.22327800
   142  H          0.70090000       0.95205400       0.27672200
   143  H          0.20090000       0.54794600       0.77672200
   144  H          0.29910000       0.04794600       0.72327800
   145  C          0.24382000       0.54201500       0.18065110
   146  C          0.25618000       0.04201500       0.31934890
   147  C          0.75618000       0.45798500       0.81934890
   148  C          0.74382000       0.95798500       0.68065110
   149  H          0.33592300       0.51816300       0.12862900
   150  H          0.16407700       0.01816300       0.37137100
   151  H          0.66407700       0.48183700       0.87137100
   152  H          0.83592300       0.98183700       0.62862900
   153  H          0.36303200       0.56238700       0.23320900
   154  H          0.13696800       0.06238700       0.26679100
   155  H          0.63696800       0.43761300       0.76679100
   156  H          0.86303200       0.93761300       0.73320900
   157  H          0.14086300       0.56782000       0.13238200
   158  H          0.35913700       0.06782000       0.36761800
   159  H          0.85913700       0.43218000       0.86761800
   160  H          0.64086300       0.93218000       0.63238200
   161  O          0.41042170       0.43164300       0.33513800
   162  O          0.08957830       0.93164300       0.16486200
   163  O          0.58957830       0.56835700       0.66486200
   164  O          0.91042170       0.06835700       0.83513800
   165  H          0.48830000       0.43507000       0.40261600
   166  H          0.01170000       0.93507000       0.09738400
   167  H          0.51170000       0.56493000       0.59738400
   168  H         -0.01170000       0.06493000       0.90261600
   169  H          0.35430000       0.40058000       0.33701500
   170  H          0.14570000       0.90058000       0.16298500
   171  H          0.64570000       0.59942000       0.66298500
   172  H          0.85430000       0.09942000       0.83701500
