data_TEMXAN
_symmetry_space_group_name_H-M    'P1'
_symmetry_Int_Tables_number       1
loop_
_symmetry_equiv_pos_site_id
_symmetry_equiv_pos_as_xyz
1 x,y,z
_cell_length_a                   12.32676
_cell_length_b                   13.75839
_cell_length_c                   17.118813
_cell_angle_alpha                82.3502
_cell_angle_beta                 83.0262
_cell_angle_gamma                66.0383
loop_
_atom_site_label
_atom_site_type_symbol
_atom_site_fract_x
_atom_site_fract_y
_atom_site_fract_z
     1  O          0.76111190       0.20502000       0.13049130
     2  O          0.23888810       0.79498000       0.86950870
     3  O          0.24182000       0.11280180       0.24993130
     4  O          0.75818000       0.88719820       0.75006870
     5  N          0.39132000       0.55982000       0.17614140
     6  N          0.60868000       0.44018000       0.82385860
     7  N          0.35782000       0.67062000       0.34569140
     8  N          0.64218000       0.32938000       0.65430860
     9  N          0.11842000       0.62442000       0.39838140
    10  N          0.88158000       0.37558000       0.60161860
    11  N          0.15222000       0.51485190       0.22848140
    12  N          0.84778000       0.48514810       0.77151860
    13  N          0.64692000       0.27032000       0.24048160
    14  N          0.35308000       0.72968000       0.75951840
    15  N          0.50082000       0.17102180       0.21919140
    16  N          0.49918000       0.82897820       0.78080860
    17  N          0.30622000       0.20112000       0.32339150
    18  N          0.69378000       0.79888000       0.67660850
    19  C          0.34252000       0.56572000       0.10620160
    20  C          0.65748000       0.43428000       0.89379840
    21  C          0.37962000       0.63142000       0.05265170
    22  C          0.62038000       0.36858000       0.94734830
    23  H          0.35956800       0.65119500      -0.00068000
    24  H          0.64043200       0.34880500       0.00068000
    25  C          0.45252000       0.66432000       0.09045170
    26  C          0.54748000       0.33568000       0.90954830
    27  H          0.49089800       0.70964100       0.06679000
    28  H          0.50910200       0.29035900       0.93321000
    29  C          0.45882000       0.61982000       0.16723160
    30  C          0.54118000       0.38018000       0.83276840
    31  C          0.52302000       0.62792000       0.23451170
    32  C          0.47698000       0.37208000       0.76548830
    33  C          0.43492000       0.70132000       0.29305170
    34  C          0.56508000       0.29868000       0.70694830
    35  C          0.40983000       0.80512000       0.30395180
    36  C          0.59017000       0.19488000       0.69604820
    37  H          0.44878500       0.84786000       0.27611000
    38  H          0.55121500       0.15214000       0.72389000
    39  C          0.31613000       0.83802000       0.36374180
    40  C          0.68387000       0.16198000       0.63625820
    41  H          0.28085300       0.90670700       0.38272800
    42  H          0.71914700       0.09329300       0.61727200
    43  C          0.28483000       0.75372000       0.38956170
    44  C          0.71517000       0.24628000       0.61043830
    45  C          0.19783000       0.74102000       0.45690170
    46  C          0.80217000       0.25898000       0.54309830
    47  C          0.09863000       0.71792000       0.43043160
    48  C          0.90137000       0.28208000       0.56956840
    49  C          0.97737000       0.77352000       0.43674170
    50  C          0.02263000       0.22648000       0.56325830
    51  H          0.93635100       0.84121700       0.45680400
    52  H          0.06364900       0.15878300       0.54319600
    53  C          0.92397000       0.71282000       0.40828170
    54  C          0.07603000       0.28718000       0.59171830
    55  H          0.84099600       0.73274900       0.40599700
    56  H          0.15900400       0.26725100       0.59400300
    57  C          0.01262000       0.62032000       0.38459160
    58  C          0.98738000       0.37968000       0.61540840
    59  C          0.00722000       0.52762000       0.34870160
    60  C          0.99278000       0.47238000       0.65129840
    61  C          0.03692000       0.53672000       0.25969160
    62  C          0.96308000       0.46328000       0.74030840
    63  C          0.96757000       0.56542000       0.19771170
    64  C          0.03243000       0.43458000       0.80228830
    65  H          0.88398300       0.58528600       0.20114100
    66  H          0.11601700       0.41471400       0.79885900
    67  C          0.04222000       0.56072000       0.12667170
    68  C          0.95778000       0.43928000       0.87332830
    69  H          0.01708200       0.57657800       0.07446800
    70  H          0.98291800       0.42342200       0.92553200
    71  C          0.15652000       0.52932000       0.14694160
    72  C          0.84348000       0.47068000       0.85305840
    73  C          0.27292000       0.49992000       0.09615160
    74  C          0.72708000       0.50008000       0.90384840
    75  C          0.61223000       0.67723000       0.20097190
    76  C          0.38777000       0.32277000       0.79902810
    77  H          0.66823600       0.63290600       0.16146300
    78  H          0.33176400       0.36709400       0.83853700
    79  H          0.65597700       0.68087500       0.24382100
    80  H          0.34402300       0.31912500       0.75617900
    81  H          0.56937800       0.74931900       0.17616400
    82  H          0.43062200       0.25068100       0.82383600
    83  C          0.14143000       0.84593000       0.49782000
    84  C          0.85857000       0.15407000       0.50218000
    85  H          0.20437200       0.86143400       0.51635200
    86  H          0.79562800       0.13856600       0.48364800
    87  H          0.08756000       0.83810800       0.54297300
    88  H          0.91244000       0.16189200       0.45702700
    89  H          0.09659000       0.90469700       0.46014000
    90  H          0.90341000       0.09530300       0.53986000
    91  C          0.26603000       0.65143000       0.51818180
    92  C          0.73397000       0.34857000       0.48181820
    93  H          0.30506200       0.58418800       0.49337400
    94  H          0.69493800       0.41581200       0.50662600
    95  H          0.21030000       0.64356200       0.56205100
    96  H          0.78970000       0.35643800       0.43794900
    97  H          0.32618900       0.66920700       0.53823700
    98  H          0.67381100       0.33079300       0.46176300
    99  C          0.87887000       0.53243000       0.36397180
   100  C          0.12113000       0.46757000       0.63602820
   101  H          0.82288000       0.60190000       0.34228100
   102  H          0.17712000       0.39810000       0.65771900
   103  H          0.85984800       0.52291600       0.42098900
   104  H          0.14015200       0.47708400       0.57901100
   105  H          0.87278300       0.47546500       0.33832000
   106  H          0.12721700       0.52453500       0.66168000
   107  C          0.24773000       0.51352000       0.00875170
   108  C          0.75227000       0.48648000       0.99124830
   109  H          0.20321500       0.47081800       0.00132100
   110  H          0.79678500       0.52918200      -0.00132100
   111  H          0.32314400       0.48945100       0.97608300
   112  H          0.67685600       0.51054900       0.02391700
   113  H          0.20059700       0.58897200      -0.00688200
   114  H          0.79940300       0.41102800       0.00688200
   115  C          0.35133000       0.38102000       0.11809180
   116  C          0.64867000       0.61898000       0.88190820
   117  H          0.36888100       0.37074600       0.17362700
   118  H          0.63111900       0.62925400       0.82637300
   119  H          0.42583300       0.35998600       0.08444400
   120  H          0.57416700       0.64001400       0.91555600
   121  H          0.30867500       0.33689700       0.11012000
   122  H          0.69132500       0.66310300       0.88988000
   123  C          0.59022000       0.51492000       0.27652170
   124  C          0.40978000       0.48508000       0.72347830
   125  H          0.62645500       0.52273000       0.32256700
   126  H          0.37354500       0.47727000       0.67743300
   127  H          0.53138400       0.48385000       0.29691500
   128  H          0.46861600       0.51615000       0.70308500
   129  C          0.68783000       0.43612000       0.22496180
   130  C          0.31217000       0.56388000       0.77503820
   131  H          0.65939400       0.44422800       0.17184400
   132  H          0.34060600       0.55577200       0.82815600
   133  H          0.75866700       0.45396300       0.21869200
   134  H          0.24133300       0.54603700       0.78130800
   135  C          0.72373000       0.32043000       0.25912190
   136  C          0.27627000       0.67957000       0.74087810
   137  H          0.80628000       0.27857300       0.23882300
   138  H          0.19372000       0.72142700       0.76117700
   139  H          0.72292700       0.31722000       0.31728600
   140  H          0.27707300       0.68278000       0.68271400
   141  C          0.67423000       0.21422000       0.17781180
   142  C          0.32577000       0.78578000       0.82218820
   143  C          0.59433000       0.16002000       0.16635170
   144  C          0.40567000       0.83998000       0.83364830
   145  C          0.61743000       0.10313000       0.10112000
   146  C          0.38257000       0.89687000       0.89888000
   147  H          0.68462000       0.09617300       0.06515400
   148  H          0.31538000       0.90382700       0.93484600
   149  C          0.54143000       0.05673000       0.08942000
   150  C          0.45857000       0.94327000       0.91058000
   151  H          0.55665800       0.01595900       0.04559100
   152  H          0.44334200       0.98404100       0.95440900
   153  C          0.44283000       0.06953000       0.14152000
   154  C          0.55717000       0.93047000       0.85848000
   155  H          0.38813300       0.03969400       0.13371000
   156  H          0.61186700       0.96030600       0.86629000
   157  C          0.42613000       0.12762000       0.20582180
   158  C          0.57387000       0.87238000       0.79417820
   159  C          0.31733000       0.14672000       0.26220180
   160  C          0.68267000       0.85328000       0.73779820
   161  C          0.20533000       0.21963000       0.38203190
   162  C          0.79467000       0.78037000       0.61796810
   163  H          0.22920700       0.22707400       0.43333300
   164  H          0.77079300       0.77292600       0.56666700
   165  H          0.18460800       0.15641700       0.38895700
   166  H          0.81539200       0.84358300       0.61104300
   167  C          0.09493000       0.31902000       0.35989180
   168  C          0.90507000       0.68098000       0.64010820
   169  H          0.09120800       0.32815400       0.30179300
   170  H          0.90879200       0.67184600       0.69820700
   171  H          0.02287500       0.30841200       0.38400900
   172  H          0.97712500       0.69158800       0.61599100
   173  C          0.09473000       0.42032000       0.38718170
   174  C          0.90527000       0.57968000       0.61281830
   175  H          0.17626200       0.41859400       0.37674800
   176  H          0.82373800       0.58140600       0.62325200
   177  H          0.07596100       0.41879900       0.44511200
   178  H          0.92403900       0.58120100       0.55488800
   179  H          0.18830000       0.57530000       0.38951800
   180  H          0.81170000       0.42470000       0.61048200
   181  H          0.38520000       0.52220000       0.21881800
   182  H          0.61480000       0.47780000       0.78118200
   183  H          0.58230000       0.28030000       0.27320000
   184  H          0.41770000       0.71970000       0.72680000
   185  H          0.36130000       0.22830000       0.33120000
   186  H          0.63870000       0.77170000       0.66880000
   187  H          0.21430000       0.49030000       0.25820000
   188  H          0.78570000       0.50970000       0.74180000
   189  H          0.35430000       0.60430000       0.35120000
   190  H          0.64570000       0.39570000       0.64880000
   191  O          0.34792170       0.46268160       0.33877110
   192  O          0.65207830       0.53731840       0.66122890
   193  O          0.36795190       0.40329170       0.46318120
   194  O          0.63204810       0.59670830       0.53681880
   195  O          0.46642000       0.29229170       0.37067120
   196  O          0.53358000       0.70770830       0.62932880
   197  C          0.39783000       0.38292000       0.38647180
   198  C          0.60217000       0.61708000       0.61352820
   199  C          0.41873000       0.31633000       0.52229190
   200  C          0.58127000       0.68367000       0.47770810
   201  H          0.38923300       0.26073500       0.51898600
   202  H          0.61076700       0.73926500       0.48101400
   203  H          0.39573700       0.34240400       0.57484100
   204  H          0.60426300       0.65759600       0.42515900
   205  H          0.50563900       0.28638200       0.51328900
   206  H          0.49436100       0.71361800       0.48671100
   207  C          0.02414000       0.29973000       0.13183000
   208  C          0.97586000       0.70027000       0.86817000
   209  H         -0.00274400       0.31696000       0.18647700
   210  H          0.00274400       0.68304000       0.81352300
   211  H          0.95473800       0.31849800       0.10146500
   212  H          0.04526200       0.68150200       0.89853500
   213  H          0.07113800       0.34036400       0.10806800
   214  H          0.92886200       0.65963600       0.89193200
   215  O          0.09452000       0.18972000       0.13116170
   216  O          0.90548000       0.81028000       0.86883830
   217  H          0.13340000       0.16940000       0.16630000
   218  H          0.86660000       0.83060000       0.83370000
   219  C          0.26054000       0.20343000       0.96208000
   220  C          0.73946000       0.79657000       0.03792000
   221  H          0.18784000       0.26728400       0.95231600
   222  H          0.81216000       0.73271600       0.04768400
   223  H          0.30855400       0.18489600       0.91214100
   224  H          0.69144600       0.81510400       0.08785900
   225  H          0.30633900       0.21749600      -0.00118100
   226  H          0.69366100       0.78250400       0.00118100
   227  O          0.22972000       0.11772000      -0.00469160
   228  O          0.77028000       0.88228000       0.00469160
   229  H          0.18730000       0.13630000       0.03920000
   230  H          0.81270000       0.86370000       0.96080000
   231  N          0.04042000       0.89369810       0.17312140
   232  N          0.95958000       0.10630190       0.82687860
   233  C          0.17413000       0.84278000       0.18017180
   234  C          0.82587000       0.15722000       0.81982820
   235  H          0.18927200       0.82858600       0.23690000
   236  H          0.81072800       0.17141400       0.76310000
   237  H          0.20683100       0.77316700       0.15736500
   238  H          0.79316900       0.22683300       0.84263500
   239  C          0.24023000       0.90957000       0.13962000
   240  C          0.75977000       0.09043000       0.86038000
   241  H          0.22549800       0.92466700       0.08339400
   242  H          0.77450200       0.07533300       0.91660600
   243  H          0.32572900       0.87050000       0.14520200
   244  H          0.67427100       0.12950000       0.85479800
   245  H          0.21213200       0.97702900       0.16395600
   246  H          0.78786800       0.02297100       0.83604400
   247  C          0.98447000       0.00182000       0.20679190
   248  C          0.01553000      -0.00182000       0.79320810
   249  H          0.01400600       0.05156000       0.17307200
   250  H          0.98599400       0.94844000       0.82692800
   251  H          0.89729500       0.03011800       0.20324900
   252  H          0.10270500       0.96988200       0.79675100
   253  C          0.00794000       0.00203000       0.29052000
   254  C          0.99206000      -0.00203000       0.70948000
   255  H          0.97963300       0.95277600       0.32471900
   256  H          0.02036700       0.04722400       0.67528100
   257  H          0.96574000       0.07429800       0.30720000
   258  H          0.03426000       0.92570200       0.69280000
   259  H          0.09355100       0.97917900       0.29433300
   260  H          0.90644900       0.02082100       0.70566700
   261  C          0.99007000       0.81548000       0.21760180
   262  C          0.00993000       0.18452000       0.78239820
   263  H          0.02969300       0.74624900       0.19442800
   264  H          0.97030700       0.25375100       0.80557200
   265  H          0.01012800       0.80350400       0.27331100
   266  H          0.98987200       0.19649600       0.72668900
   267  C          0.85707000       0.85167000       0.21622000
   268  C          0.14293000       0.14833000       0.78378000
   269  H          0.81657700       0.91706600       0.24307700
   270  H          0.18342300       0.08293400       0.75692300
   271  H          0.83271400       0.79559700       0.24328100
   272  H          0.16728600       0.20440300       0.75671900
   273  H          0.83578500       0.86580900       0.16127600
   274  H          0.16421500       0.13419100       0.83872400
   275  C          0.01163000       0.91488000       0.08707170
   276  C          0.98837000       0.08512000       0.91292830
   277  H          0.92401600       0.94754400       0.08514200
   278  H          0.07598400       0.05245600       0.91485800
   279  H          0.04271600       0.96792600       0.06060500
   280  H          0.95728400       0.03207400       0.93939500
   281  C          0.06093000       0.81817000       0.04068190
   282  C          0.93907000       0.18183000       0.95931810
   283  H          0.14794000       0.78620500       0.04059800
   284  H          0.85206000       0.21379500       0.95940200
   285  H          0.03793500       0.83968500       0.98620100
   286  H          0.96206500       0.16031500       0.01379900
   287  H          0.02891200       0.76582100       0.06514300
   288  H          0.97108800       0.23417900       0.93485700
   289  Cl         0.44323000       0.05392000       0.63213190
   290  Cl         0.55677000       0.94608000       0.36786810
   291  Cl         0.27113000       0.96507000       0.62852000
   292  Cl         0.72887000       0.03493000       0.37148000
   293  Cl         0.41295000       0.98226000       0.49002000
   294  Cl         0.58705000       0.01774000       0.50998000
   295  C          0.40067000       0.96863000       0.59073000
   296  C          0.59933000       0.03137000       0.40927000
   297  H          0.46126200       0.89573100       0.60552900
   298  H          0.53873800       0.10426900       0.39447100
