data_TEPLAD
_symmetry_space_group_name_H-M    'P1'
_symmetry_Int_Tables_number       1
loop_
_symmetry_equiv_pos_site_id
_symmetry_equiv_pos_as_xyz
1 x,y,z
_cell_length_a                   7.56698
_cell_length_b                   24.0463
_cell_length_c                   11.656715
_cell_angle_alpha                90.0
_cell_angle_beta                 108.78401
_cell_angle_gamma                90.0
loop_
_atom_site_label
_atom_site_type_symbol
_atom_site_fract_x
_atom_site_fract_y
_atom_site_fract_z
     1  F          0.08954000       0.25766100       0.19842000
     2  F          0.91046000       0.75766100       0.30158000
     3  F          0.91046000       0.74233900       0.80158000
     4  F          0.08954000       0.24233900       0.69842000
     5  F          0.94886000       0.16092120       0.08982000
     6  F          0.05114000       0.66092120       0.41018000
     7  F          0.05114000       0.83907880       0.91018000
     8  F          0.94886000       0.33907880       0.58982000
     9  F          0.02234000       0.06484100       0.21492000
    10  F         -0.02234000       0.56484100       0.28508000
    11  F         -0.02234000       0.93515900       0.78508000
    12  F          0.02234000       0.43515900       0.71492000
    13  F          0.37003000       0.16207800       0.56262190
    14  F          0.62997000       0.66207800       0.93737810
    15  F          0.62997000       0.83792200       0.43737810
    16  F          0.37003000       0.33792200       0.06262190
    17  I          0.32695400       0.28632210       0.47482200
    18  I          0.67304600       0.78632210       0.02517800
    19  I          0.67304600       0.71367790       0.52517800
    20  I          0.32695400       0.21367790       0.97482200
    21  I          0.25882400       0.03764110       0.49158300
    22  I          0.74117600       0.53764110       0.00841700
    23  I          0.74117600       0.96235890       0.50841700
    24  I          0.25882400       0.46235890      -0.00841700
    25  C          0.05606000       0.16099170       0.20733000
    26  C          0.94394000       0.66099170       0.29267000
    27  C          0.94394000       0.83900830       0.79267000
    28  C          0.05606000       0.33900830       0.70733000
    29  C          0.09295000       0.11242160       0.27203000
    30  C          0.90705000       0.61242160       0.22797000
    31  C          0.90705000       0.88757840       0.72797000
    32  C          0.09295000       0.38757840       0.77203000
    33  C          0.19995000       0.11132130       0.39243000
    34  C          0.80005000       0.61132130       0.10757000
    35  C          0.80005000       0.88867870       0.60757000
    36  C          0.19995000       0.38867870       0.89243000
    37  C          0.26725000       0.16175130       0.44473000
    38  C          0.73275000       0.66175130       0.05527000
    39  C          0.73275000       0.83824870       0.55527000
    40  C          0.26725000       0.33824870       0.94473000
    41  C          0.23315000       0.21194130       0.38413000
    42  C          0.76685000       0.71194130       0.11587000
    43  C          0.76685000       0.78805870       0.61587000
    44  C          0.23315000       0.28805870       0.88413000
    45  C          0.12735000       0.21001150       0.26313000
    46  C          0.87265000       0.71001150       0.23687000
    47  C          0.87265000       0.78998850       0.73687000
    48  C          0.12735000       0.28998850       0.76313000
    49  N          0.59504000       0.33966110       0.73703000
    50  N          0.40496000       0.83966110       0.76297000
    51  N          0.40496000       0.66033890       0.26297000
    52  N          0.59504000       0.16033890       0.23703000
    53  N          0.67734000       0.40885110       0.89192000
    54  N          0.32266000       0.90885110       0.60808000
    55  N          0.32266000       0.59114890       0.10808000
    56  N          0.67734000       0.09114890       0.39192000
    57  N          0.51444000       0.48723110       0.72032000
    58  N          0.48556000       0.98723110       0.77968000
    59  N          0.48556000       0.51276890       0.27968000
    60  N          0.51444000       0.01276890       0.22032000
    61  N          0.36294000       0.41415110       0.58612000
    62  N          0.63706000       0.91415110       0.91388000
    63  N          0.63706000       0.58584890       0.41388000
    64  N          0.36294000       0.08584890       0.08612000
    65  C          0.68675000       0.30119140       0.81733000
    66  C          0.31325000       0.80119140       0.68267000
    67  C          0.31325000       0.69880860       0.18267000
    68  C          0.68675000       0.19880860       0.31733000
    69  C          0.77405000       0.31548150       0.93643000
    70  C          0.22595000       0.81548150       0.56357000
    71  C          0.22595000       0.68451850       0.06357000
    72  C          0.77405000       0.18451850       0.43643000
    73  H          0.83650000       0.28860000      -0.00780000
    74  H          0.16350000       0.78860000       0.50780000
    75  H          0.16350000       0.71140000       0.00780000
    76  H          0.83650000       0.21140000       0.49220000
    77  C          0.76815000       0.36960150       0.97253000
    78  C          0.23185000       0.86960150       0.52747000
    79  C          0.23185000       0.63039850       0.02747000
    80  C          0.76815000       0.13039850       0.47253000
    81  C          0.59384000       0.39138130       0.77823000
    82  C          0.40616000       0.89138130       0.72177000
    83  C          0.40616000       0.60861870       0.22177000
    84  C          0.59384000       0.10861870       0.27823000
    85  C          0.48355000       0.43385130       0.68843000
    86  C          0.51645000       0.93385130       0.81157000
    87  C          0.51645000       0.56614870       0.31157000
    88  C          0.48355000       0.06614870       0.18843000
    89  C          0.41235000       0.52473140       0.64143000
    90  C          0.58765000       0.02473140       0.85857000
    91  C          0.58765000       0.47526860       0.35857000
    92  C          0.41235000       0.97526860       0.14143000
    93  C          0.28365000       0.50808150       0.53423000
    94  C          0.71635000       0.00808150       0.96577000
    95  C          0.71635000       0.49191850       0.46577000
    96  C          0.28365000       0.99191850       0.03423000
    97  H          0.21290000       0.53430000       0.47990000
    98  H          0.78710000       0.03430000       0.02010000
    99  H          0.78710000       0.46570000       0.52010000
   100  H          0.21290000       0.96570000       0.97990000
   101  C          0.26045000       0.45223150       0.50813000
   102  C          0.73955000       0.95223150      -0.00813000
   103  C          0.73955000       0.54776850       0.49187000
   104  C          0.26045000       0.04776850       0.00813000
   105  C          0.11946000       0.43175170       0.39334000
   106  C          0.88054000       0.93175170       0.10666000
   107  C          0.88054000       0.56824830       0.60666000
   108  C          0.11946000       0.06824830       0.89334000
   109  H          0.18280000       0.41490000       0.34280000
   110  H          0.81720000       0.91490000       0.15720000
   111  H          0.81720000       0.58510000       0.65720000
   112  H          0.18280000       0.08510000       0.84280000
   113  H          0.04570000       0.46250000       0.35110000
   114  H          0.95430000       0.96250000       0.14890000
   115  H          0.95430000       0.53750000       0.64890000
   116  H          0.04570000       0.03750000       0.85110000
   117  H          0.03960000       0.40480000       0.41250000
   118  H          0.96040000       0.90480000       0.08750000
   119  H          0.96040000       0.59520000       0.58750000
   120  H          0.03960000       0.09520000       0.91250000
   121  C          0.44226000       0.58519140       0.67474000
   122  C          0.55774000       0.08519140       0.82526000
   123  C          0.55774000       0.41480860       0.32526000
   124  C          0.44226000       0.91480860       0.17474000
   125  H          0.35540000       0.59670000       0.71460000
   126  H          0.64460000       0.09670000       0.78540000
   127  H          0.64460000       0.40330000       0.28540000
   128  H          0.35540000       0.90330000       0.21460000
   129  H          0.42290000       0.60700000       0.60260000
   130  H          0.57710000       0.10700000       0.89740000
   131  H          0.57710000       0.39300000       0.39740000
   132  H          0.42290000       0.89300000       0.10260000
   133  H          0.56740000       0.59060000       0.72800000
   134  H          0.43260000       0.09060000       0.77200000
   135  H          0.43260000       0.40940000       0.27200000
   136  H          0.56740000       0.90940000       0.22800000
   137  C          0.85936000       0.38750170       0.10103000
   138  C          0.14064000       0.88750170       0.39897000
   139  C          0.14064000       0.61249830       0.89897000
   140  C          0.85936000       0.11249830       0.60103000
   141  H          0.96430000       0.41090000       0.10590000
   142  H          0.03570000       0.91090000       0.39410000
   143  H          0.03570000       0.58910000       0.89410000
   144  H          0.96430000       0.08910000       0.60590000
   145  H          0.90090000       0.35530000       0.15120000
   146  H          0.09910000       0.85530000       0.34880000
   147  H          0.09910000       0.64470000       0.84880000
   148  H          0.90090000       0.14470000       0.65120000
   149  H          0.77120000       0.40780000       0.12850000
   150  H          0.22880000       0.90780000       0.37150000
   151  H          0.22880000       0.59220000       0.87150000
   152  H          0.77120000       0.09220000       0.62850000
   153  C          0.68757000       0.24247150       0.77354000
   154  C          0.31243000       0.74247150       0.72646000
   155  C          0.31243000       0.75752850       0.22646000
   156  C          0.68757000       0.25752850       0.27354000
   157  H          0.56980000       0.22520000       0.76580000
   158  H          0.43020000       0.72520000       0.73420000
   159  H          0.43020000       0.77480000       0.23420000
   160  H          0.56980000       0.27480000       0.26580000
   161  H          0.78600000       0.22200000       0.83070000
   162  H          0.21400000       0.72200000       0.66930000
   163  H          0.21400000       0.77800000       0.16930000
   164  H          0.78600000       0.27800000       0.33070000
   165  H          0.70710000       0.24260000       0.69620000
   166  H          0.29290000       0.74260000       0.80380000
   167  H          0.29290000       0.75740000       0.30380000
   168  H          0.70710000       0.25740000       0.19620000
