data_TETTAQ
_symmetry_space_group_name_H-M    'P1'
_symmetry_Int_Tables_number       1
loop_
_symmetry_equiv_pos_site_id
_symmetry_equiv_pos_as_xyz
1 x,y,z
_cell_length_a                   8.42412
_cell_length_b                   10.61702
_cell_length_c                   13.06983
_cell_angle_alpha                90.0
_cell_angle_beta                 99.8192
_cell_angle_gamma                90.0
loop_
_atom_site_label
_atom_site_type_symbol
_atom_site_fract_x
_atom_site_fract_y
_atom_site_fract_z
     1  C          0.95635160       0.15534140       0.31089110
     2  C          0.04364840       0.65534140       0.68910890
     3  H          0.00420000       0.16971900       0.38471600
     4  H         -0.00420000       0.66971900       0.61528400
     5  C         -0.00501830       0.01862140       0.27585110
     6  C          0.00501830       0.51862140       0.72414890
     7  H          0.06030000       0.97438100       0.32681600
     8  H          0.93970000       0.47438100       0.67318400
     9  C          0.03897170       0.16572140       0.14700110
    10  C          0.96102830       0.66572140       0.85299890
    11  H          0.11930000       0.20011900       0.11121600
    12  H          0.88070000       0.70011900       0.88878400
    13  C          0.69182170       0.14663150       0.19449110
    14  C          0.30817830       0.64663150       0.80550890
    15  H          0.58220000       0.16191900       0.19181500
    16  H          0.41780000       0.66191900       0.80818500
    17  C          0.72874170       0.00864150       0.16195110
    18  C          0.27125830       0.50864150       0.83804890
    19  H          0.63330000       0.95780000       0.14711600
    20  H          0.36670000       0.45780000       0.85288400
    21  C          0.86908180       0.15965140       0.07294110
    22  C          0.13091820       0.65965140       0.92705890
    23  H          0.87720000       0.18920000       0.00641700
    24  H          0.12280000       0.68920000      -0.00641700
    25  N          0.02347150       0.23918120       0.23937900
    26  N          0.97652850       0.73918120       0.76062100
    27  N          0.07633150       0.03786120       0.18704100
    28  N          0.92366850       0.53786120       0.81295900
    29  N          0.78270150       0.16780120       0.29827100
    30  N          0.21729850       0.66780120       0.70172900
    31  N          0.84836150       0.94716880       0.24102100
    32  N          0.15163850       0.44716880       0.75897900
    33  N          0.75034160       0.22993130       0.11845100
    34  N          0.24965840       0.72993130       0.88154900
    35  N          0.79663160       0.03274120       0.06843900
    36  N          0.20336840       0.53274120       0.93156100
    37  N          0.15654150       0.31499120       0.28276100
    38  N          0.84345850       0.81499120       0.71723900
    39  N          0.23971150      -0.00205130       0.19905100
    40  N          0.76028850       0.49794870       0.80094900
    41  N          0.72964160       0.27100120       0.35261110
    42  N          0.27035840       0.77100120       0.64738890
    43  N          0.78806170       0.87945880       0.31748110
    44  N          0.21193830       0.37945880       0.68251890
    45  N          0.62569190       0.29015130       0.04539110
    46  N          0.37430810       0.79015130       0.95460890
    47  N          0.86940170       0.93456860       0.02374100
    48  N          0.13059830       0.43456860       0.97625900
    49  O          0.16053150       0.34860110       0.37234900
    50  O          0.83946850       0.84860110       0.62765100
    51  O          0.24938150       0.34521120       0.22519100
    52  O          0.75061850       0.84521120       0.77480900
    53  O          0.32769150       0.05779130       0.15218100
    54  O          0.67230850       0.55779130       0.84781900
    55  O          0.27254150       0.90320890       0.25051100
    56  O          0.72745850       0.40320890       0.74948900
    57  O          0.81911150       0.30439120       0.43089900
    58  O          0.18088850       0.80439120       0.56910100
    59  O          0.59716140       0.31392120       0.31837100
    60  O          0.40283860       0.81392120       0.68162900
    61  O          0.64633150       0.84904880       0.29837100
    62  O          0.35366850       0.34904880       0.70162900
    63  O          0.88429160       0.85116870       0.39489100
    64  O          0.11570840       0.35116870       0.60510900
    65  O          0.66495180       0.32908120       0.96665100
    66  O          0.33504820       0.82908120       0.03334900
    67  O          0.49675160       0.30335140       0.07372110
    68  O          0.50324840       0.80335140       0.92627890
    69  O          0.96548160       0.96442870       0.96736900
    70  O          0.03451840       0.46442870       0.03263100
    71  O          0.82838160       0.82790890       0.04268100
    72  O          0.17161840       0.32790890       0.95731900
    73  C          0.65488180       0.58659140       0.46215110
    74  C          0.34511820       0.08659140       0.53784890
    75  C          0.48284180       0.60077150       0.43900120
    76  C          0.51715820       0.10077150       0.56099880
    77  C          0.37870180       0.61621140       0.33898120
    78  C          0.62129820       0.11621140       0.66101880
    79  C          0.42390180       0.60831140       0.24004120
    80  C          0.57609820       0.10831140       0.75995880
    81  C          0.58454190       0.58543150       0.21826110
    82  C          0.41545810       0.08543150       0.78173890
    83  C          0.73239190       0.57107140       0.29042120
    84  C          0.26760810       0.07107140       0.70957880
    85  N          0.76672150       0.58146130       0.39748900
    86  N          0.23327850       0.08146130       0.60251100
    87  N          0.69861170       0.57821150       0.56321100
    88  N          0.30138830       0.07821150       0.43678900
    89  N          0.42542180       0.60024170       0.52572110
    90  N          0.57457820       0.10024170       0.47427890
    91  N          0.22350170       0.63692140       0.32809110
    92  N          0.77649830       0.13692140       0.67190890
    93  N          0.29679170       0.62323140       0.16877110
    94  N          0.70320830       0.12323140       0.83122890
    95  N          0.61430190       0.57249150       0.12392110
    96  N          0.38569810       0.07249150       0.87607890
    97  N          0.84930190       0.54760160       0.23874110
    98  N          0.15069810       0.04760160       0.76125890
    99  N          0.92945160       0.57239150       0.44792110
   100  N          0.07054840       0.07239150       0.55207890
   101  H          0.96630000       0.49230000       0.44020000
   102  H          0.03370000      -0.00770000       0.55980000
   103  H         -0.01670000       0.62820000       0.41631900
   104  H          0.01670000       0.12820000       0.58368100
   105  O          0.55602160       0.58712150       0.60317900
   106  O          0.44397840       0.08712150       0.39682100
   107  O          0.17125150       0.64109130       0.22221100
   108  O          0.82874850       0.14109130       0.77778900
   109  O          0.77627170       0.54901150       0.13445100
   110  O          0.22372830       0.04901150       0.86554900
