data_TETXUL
_symmetry_space_group_name_H-M    'P1'
_symmetry_Int_Tables_number       1
loop_
_symmetry_equiv_pos_site_id
_symmetry_equiv_pos_as_xyz
1 x,y,z
_cell_length_a                   4.8575
_cell_length_b                   21.7558
_cell_length_c                   9.4283
_cell_angle_alpha                90.0
_cell_angle_beta                 104.086
_cell_angle_gamma                90.0
loop_
_atom_site_label
_atom_site_type_symbol
_atom_site_fract_x
_atom_site_fract_y
_atom_site_fract_z
     1  Cl        -0.00000000       0.43606400       0.00000000
     2  Cl        -0.00000000       0.56393600       0.50000000
     3  Cl         0.50000000       0.93606400       0.00000000
     4  Cl         0.50000000       0.06393600       0.50000000
     5  O          0.28815000       0.44569900       0.76042000
     6  O          0.28815000       0.55430100       0.26042000
     7  O          0.78815000       0.94569900       0.76042000
     8  O          0.78815000       0.05430100       0.26042000
     9  O          0.40545000       0.34746900       0.76072000
    10  O          0.40545000       0.65253100       0.26072000
    11  O          0.90545000       0.84746900       0.76072000
    12  O          0.90545000       0.15253100       0.26072000
    13  C          0.29656000       0.39431000       0.80883000
    14  C          0.29656000       0.60569000       0.30883000
    15  C          0.79656000       0.89431000       0.80883000
    16  C          0.79656000       0.10569000       0.30883000
    17  C          0.17527000       0.37611000       0.93443000
    18  C          0.17527000       0.62389000       0.43443000
    19  C          0.67527000       0.87611000       0.93443000
    20  C          0.67527000       0.12389000       0.43443000
    21  H          0.49590000       0.35420000       0.69350000
    22  H          0.49590000       0.64580000       0.19350000
    23  H         -0.00410000       0.85420000       0.69350000
    24  H         -0.00410000       0.14580000       0.19350000
    25  H          0.04360000       0.34210000       0.91130000
    26  H          0.04360000       0.65790000       0.41130000
    27  H          0.54360000       0.84210000       0.91130000
    28  H          0.54360000       0.15790000       0.41130000
    29  H          0.32370000       0.36120000       0.01440000
    30  H          0.32370000       0.63880000       0.51440000
    31  H          0.82370000       0.86120000       0.01440000
    32  H          0.82370000       0.13880000       0.51440000
    33  O          0.77545000       0.76631000       0.32142000
    34  O          0.77545000       0.23369000       0.82142000
    35  O          0.27545000       0.26631000       0.32142000
    36  O          0.27545000       0.73369000       0.82142000
    37  O          0.70945000       0.72851000       0.52113000
    38  O          0.70945000       0.27149000       0.02113000
    39  O          0.20945000       0.22851000       0.52113000
    40  O          0.20945000       0.77149000       0.02113000
    41  N          0.65945000       0.76601000       0.42303000
    42  N          0.65945000       0.23399000       0.92303000
    43  N          0.15945000       0.26601000       0.42303000
    44  N          0.15945000       0.73399000       0.92303000
    45  N          0.93984000       0.95221000       0.47493000
    46  N          0.93984000       0.04779000       0.97493000
    47  N          0.43984000       0.45221000       0.47493000
    48  N          0.43984000       0.54779000       0.97493000
    49  N          0.15995000       0.86211000       0.55422000
    50  N          0.15995000       0.13789000       0.05422000
    51  N          0.65995000       0.36211000       0.55422000
    52  N          0.65995000       0.63789000       0.05422000
    53  C          0.45746000       0.81391000       0.42613000
    54  C          0.45746000       0.18609000       0.92613000
    55  C          0.95746000       0.31391000       0.42613000
    56  C          0.95746000       0.68609000       0.92613000
    57  C          0.39366000       0.85781000       0.31733000
    58  C          0.39366000       0.14219000       0.81733000
    59  C          0.89366000       0.35781000       0.31733000
    60  C          0.89366000       0.64219000       0.81733000
    61  C          0.21977000       0.90411000       0.33073000
    62  C          0.21977000       0.09589000       0.83073000
    63  C          0.71977000       0.40411000       0.33073000
    64  C          0.71977000       0.59589000       0.83073000
    65  C          0.10466000       0.90681000       0.45353000
    66  C          0.10466000       0.09319000       0.95353000
    67  C          0.60466000       0.40681000       0.45353000
    68  C          0.60466000       0.59319000       0.95353000
    69  C          0.33416000       0.81641000       0.54153000
    70  C          0.33416000       0.18359000       0.04153000
    71  C          0.83416000       0.31641000       0.54153000
    72  C          0.83416000       0.68359000       0.04153000
    73  H          0.88540000       0.97810000       0.40230000
    74  H          0.88540000       0.02190000       0.90230000
    75  H          0.38540000       0.47810000       0.40230000
    76  H          0.38540000       0.52190000       0.90230000
    77  H          0.87630000       0.95520000       0.55240000
    78  H          0.87630000       0.04480000       0.05240000
    79  H          0.37630000       0.45520000       0.55240000
    80  H          0.37630000       0.54480000       0.05240000
    81  H          0.45960000       0.85410000       0.22630000
    82  H          0.45960000       0.14590000       0.72630000
    83  H          0.95960000       0.35410000       0.22630000
    84  H          0.95960000       0.64590000       0.72630000
    85  H          0.17970000       0.93310000       0.26530000
    86  H          0.17970000       0.06690000       0.76530000
    87  H          0.67970000       0.43310000       0.26530000
    88  H          0.67970000       0.56690000       0.76530000
    89  H          0.37050000       0.78510000       0.61830000
    90  H          0.37050000       0.21490000       0.11830000
    91  H          0.87050000       0.28510000       0.61830000
    92  H          0.87050000       0.71490000       0.11830000
