data_TEVWOH
_symmetry_space_group_name_H-M    'P1'
_symmetry_Int_Tables_number       1
loop_
_symmetry_equiv_pos_site_id
_symmetry_equiv_pos_as_xyz
1 x,y,z
_cell_length_a                   16.094214
_cell_length_b                   15.787114
_cell_length_c                   7.79507
_cell_angle_alpha                90.0
_cell_angle_beta                 97.21701
_cell_angle_gamma                90.0
loop_
_atom_site_label
_atom_site_type_symbol
_atom_site_fract_x
_atom_site_fract_y
_atom_site_fract_z
     1  C          0.22822100       0.51193100       0.91162000
     2  C          0.77177900       0.01193100       0.58838000
     3  C          0.77177900       0.48806900       0.08838000
     4  C          0.22822100       0.98806900       0.41162000
     5  C          0.27344110       0.56802110       0.81902000
     6  C          0.72655890       0.06802110       0.68098000
     7  C          0.72655890       0.43197890       0.18098000
     8  C          0.27344110       0.93197890       0.31902000
     9  C          0.32574110       0.62863110       0.90402000
    10  C          0.67425890       0.12863110       0.59598000
    11  C          0.67425890       0.37136890       0.09598000
    12  C          0.32574110       0.87136890       0.40402000
    13  H          0.35440000       0.66630000       0.84080000
    14  H          0.64560000       0.16630000       0.65920000
    15  H          0.64560000       0.33370000       0.15920000
    16  H          0.35440000       0.83370000       0.34080000
    17  C          0.33534110       0.63312110       0.08282000
    18  C          0.66465890       0.13312110       0.41718000
    19  C          0.66465890       0.36687890       0.91718000
    20  C          0.33534110       0.86687890       0.58282000
    21  C          0.29035120       0.57822110       0.17642000
    22  C          0.70964880       0.07822110       0.32358000
    23  C          0.70964880       0.42177890       0.82358000
    24  C          0.29035120       0.92177890       0.67642000
    25  H          0.29550000       0.58180000       0.29640000
    26  H          0.70450000       0.08180000       0.20360000
    27  H          0.70450000       0.41820000       0.70360000
    28  H          0.29550000       0.91820000       0.79640000
    29  C          0.23850110       0.51901110       0.09092000
    30  C          0.76149890       0.01901110       0.40908000
    31  C          0.76149890       0.48098890       0.90908000
    32  C          0.23850110       0.98098890       0.59092000
    33  H          0.20920000       0.48230000       0.15480000
    34  H          0.79080000       0.98230000       0.34520000
    35  H          0.79080000       0.51770000       0.84520000
    36  H          0.20920000       0.01770000       0.65480000
    37  C          0.17166110       0.44839110       0.82082000
    38  C          0.82833890       0.94839110       0.67918000
    39  C          0.82833890       0.55160890       0.17918000
    40  C          0.17166110       0.05160890       0.32082000
    41  O          0.12948900       0.40123900       0.91232180
    42  O          0.87051100       0.90123900       0.58767820
    43  O          0.87051100       0.59876100       0.08767820
    44  O          0.12948900       0.09876100       0.41232180
    45  O          0.16514900       0.44290900       0.65951170
    46  O          0.83485100       0.94290900       0.84048830
    47  O          0.83485100       0.55709100       0.34048830
    48  O          0.16514900       0.05709100       0.15951170
    49  O          0.26718100       0.56437100       0.64378160
    50  O          0.73281900       0.06437100       0.85621840
    51  O          0.73281900       0.43562900       0.35621840
    52  O          0.26718100       0.93562900       0.14378160
    53  H          0.23381400       0.52371300       0.61630000
    54  H          0.76618600       0.02371300       0.88370000
    55  H          0.76618600       0.47628700       0.38370000
    56  H          0.23381400       0.97628700       0.11630000
    57  O          0.38638900       0.68964900       0.17176180
    58  O          0.61361100       0.18964900       0.32823820
    59  O          0.61361100       0.31035100       0.82823820
    60  O          0.38638900       0.81035100       0.67176180
    61  H          0.42271300       0.70641600       0.11330000
    62  H          0.57728700       0.20641600       0.38670000
    63  H          0.57728700       0.29358400       0.88670000
    64  H          0.42271300       0.79358400       0.61330000
    65  C          0.94755880       0.34384120       0.66682000
    66  C          0.05244120       0.84384120       0.83318000
    67  C          0.05244120       0.65615880       0.33318000
    68  C          0.94755880       0.15615880       0.16682000
    69  C          0.88358870       0.29498140       0.58613000
    70  C          0.11641130       0.79498140       0.91387000
    71  C          0.11641130       0.70501860       0.41387000
    72  C          0.88358870       0.20501860       0.08613000
    73  H          0.83450000       0.32030000       0.53470000
    74  H          0.16550000       0.82030000       0.96530000
    75  H          0.16550000       0.67970000       0.46530000
    76  H          0.83450000       0.17970000       0.03470000
    77  C          0.89253850       0.20893150       0.58163000
    78  C          0.10746150       0.70893150       0.91837000
    79  C          0.10746150       0.79106850       0.41837000
    80  C          0.89253850       0.29106850       0.08163000
    81  H          0.84920000       0.17530000       0.52870000
    82  H          0.15080000       0.67530000       0.97130000
    83  H          0.15080000       0.82470000       0.47130000
    84  H          0.84920000       0.32470000       0.02870000
    85  C          0.96551860       0.17241130       0.65553000
    86  C          0.03448140       0.67241130       0.84447000
    87  C          0.03448140       0.82758870       0.34447000
    88  C          0.96551860       0.32758870       0.15553000
    89  H          0.97200000       0.11390000       0.65250000
    90  H          0.02800000       0.61390000       0.84750000
    91  H          0.02800000       0.88610000       0.34750000
    92  H          0.97200000       0.38610000       0.15250000
    93  C          0.02947120       0.22246110       0.73452000
    94  C          0.97052880       0.72246110       0.76548000
    95  C          0.97052880       0.77753890       0.26548000
    96  C          0.02947120       0.27753890       0.23452000
    97  C          0.94398840       0.43833130       0.68123000
    98  C          0.05601160       0.93833130       0.81877000
    99  C          0.05601160       0.56166870       0.31877000
   100  C          0.94398840       0.06166870       0.18123000
   101  H          0.93990000       0.45380000       0.79890000
   102  H          0.06010000       0.95380000       0.70110000
   103  H          0.06010000       0.54620000       0.20110000
   104  H          0.93990000       0.04620000       0.29890000
   105  H          0.89590000       0.45920000       0.60800000
   106  H          0.10410000       0.95920000       0.89200000
   107  H          0.10410000       0.54080000       0.39200000
   108  H          0.89590000       0.04080000       0.10800000
   109  H         -0.00610000       0.46250000       0.64580000
   110  H          0.00610000       0.96250000       0.85420000
   111  H          0.00610000       0.53750000       0.35420000
   112  H         -0.00610000       0.03750000       0.14580000
   113  C          0.11155150       0.18849140       0.81573000
   114  C          0.88844850       0.68849140       0.68427000
   115  C          0.88844850       0.81150860       0.18427000
   116  C          0.11155150       0.31150860       0.31573000
   117  H          0.13840000       0.15870000       0.73040000
   118  H          0.86160000       0.65870000       0.76960000
   119  H          0.86160000       0.84130000       0.26960000
   120  H          0.13840000       0.34130000       0.23040000
   121  H          0.10250000       0.15040000       0.90760000
   122  H          0.89750000       0.65040000       0.59240000
   123  H          0.89750000       0.84960000       0.09240000
   124  H          0.10250000       0.34960000       0.40760000
   125  H          0.14660000       0.23450000       0.86150000
   126  H          0.85340000       0.73450000       0.63850000
   127  H          0.85340000       0.76550000       0.13850000
   128  H          0.14660000       0.26550000       0.36150000
   129  N          0.01853100       0.30634900       0.73858190
   130  N          0.98146900       0.80634900       0.76141810
   131  N          0.98146900       0.69365100       0.26141810
   132  N          0.01853100       0.19365100       0.23858190
   133  H          0.05881400       0.33521700       0.80130000
   134  H          0.94118600       0.83521700       0.69870000
   135  H          0.94118600       0.66478300       0.19870000
   136  H          0.05881400       0.16478300       0.30130000
   137  N          0.52417100       0.74269900       0.03182000
   138  N          0.47582900       0.24269900       0.46818000
   139  N          0.47582900       0.25730100       0.96818000
   140  N          0.52417100       0.75730100       0.53182000
   141  C          0.58331120       0.68670120       0.00153000
   142  C          0.41668880       0.18670120       0.49847000
   143  C          0.41668880       0.31329880      -0.00153000
   144  C          0.58331120       0.81329880       0.50153000
   145  C          0.65944140       0.71280160       0.95713000
   146  C          0.34055860       0.21280160       0.54287000
   147  C          0.34055860       0.28719840       0.04287000
   148  C          0.65944140       0.78719840       0.45713000
   149  H          0.69970000       0.67310000       0.93620000
   150  H          0.30030000       0.17310000       0.56380000
   151  H          0.30030000       0.32690000       0.06380000
   152  H          0.69970000       0.82690000       0.43620000
   153  C          0.67530140       0.79711180       0.94403000
   154  C          0.32469860       0.29711180       0.55597000
   155  C          0.32469860       0.20288820       0.05597000
   156  C          0.67530140       0.70288820       0.44403000
   157  H          0.72620000       0.81550000       0.91260000
   158  H          0.27380000       0.31550000       0.58740000
   159  H          0.27380000       0.18450000       0.08740000
   160  H          0.72620000       0.68450000       0.41260000
   161  C          0.61549140       0.85462150       0.97753000
   162  C          0.38450860       0.35462150       0.52247000
   163  C          0.38450860       0.14537850       0.02247000
   164  C          0.61549140       0.64537850       0.47753000
   165  H          0.62580000       0.91240000       0.97160000
   166  H          0.37420000       0.41240000       0.52840000
   167  H          0.37420000       0.08760000       0.02840000
   168  H          0.62580000       0.58760000       0.47160000
   169  C          0.53988120       0.82564120       0.02022000
   170  C          0.46011880       0.32564120       0.47978000
   171  C          0.46011880       0.17435880       0.97978000
   172  C          0.53988120       0.67435880       0.52022000
   173  C          0.56273150       0.59506130       0.02073000
   174  C          0.43726850       0.09506130       0.47927000
   175  C          0.43726850       0.40493870       0.97927000
   176  C          0.56273150       0.90493870       0.52073000
   177  H          0.50580000       0.58500000       0.97190000
   178  H          0.49420000       0.08500000       0.52810000
   179  H          0.49420000       0.41500000       0.02810000
   180  H          0.50580000       0.91500000       0.47190000
   181  H          0.56960000       0.58030000       0.14110000
   182  H          0.43040000       0.08030000       0.35890000
   183  H          0.43040000       0.41970000       0.85890000
   184  H          0.56960000       0.91970000       0.64110000
   185  H          0.59960000       0.56110000       0.96140000
   186  H          0.40040000       0.06110000       0.53860000
   187  H          0.40040000       0.43890000       0.03860000
   188  H          0.59960000       0.93890000       0.46140000
   189  C          0.47108160       0.88483140       0.05293000
   190  C          0.52891840       0.38483140       0.44707000
   191  C          0.52891840       0.11516860       0.94707000
   192  C          0.47108160       0.61516860       0.55293000
   193  H          0.42340000       0.85280000       0.07810000
   194  H          0.57660000       0.35280000       0.42190000
   195  H          0.57660000       0.14720000       0.92190000
   196  H          0.42340000       0.64720000       0.57810000
   197  H          0.45570000       0.91910000       0.95220000
   198  H          0.54430000       0.41910000       0.54780000
   199  H          0.54430000       0.08090000       0.04780000
   200  H          0.45570000       0.58090000       0.45220000
   201  H          0.49000000       0.92070000       0.14940000
   202  H          0.51000000       0.42070000       0.35060000
   203  H          0.51000000       0.07930000       0.85060000
   204  H          0.49000000       0.57930000       0.64940000
