data_TEXLUH
_symmetry_space_group_name_H-M    'P1'
_symmetry_Int_Tables_number       1
loop_
_symmetry_equiv_pos_site_id
_symmetry_equiv_pos_as_xyz
1 x,y,z
_cell_length_a                   7.84959
_cell_length_b                   11.566212
_cell_length_c                   14.827616
_cell_angle_alpha                68.6565
_cell_angle_beta                 75.2145
_cell_angle_gamma                87.9995
loop_
_atom_site_label
_atom_site_type_symbol
_atom_site_fract_x
_atom_site_fract_y
_atom_site_fract_z
     1  O          0.25094000       0.42668180       0.04623160
     2  O          0.74906000       0.57331820       0.95376840
     3  N          0.74026000       0.20214000       0.37007000
     4  N          0.25974000       0.79786000       0.62993000
     5  C          0.69205000       0.22183000       0.44077000
     6  C          0.30795000       0.77817000       0.55923000
     7  C          0.62834000       0.25203000       0.52958000
     8  C          0.37166000       0.74797000       0.47042000
     9  C          0.66164000       0.37213000       0.52488000
    10  C          0.33836000       0.62787000       0.47512000
    11  H          0.72516700       0.43166400       0.46504700
    12  H          0.27483300       0.56833600       0.53495300
    13  C          0.60124000       0.40242000       0.60768000
    14  C          0.39876000       0.59758000       0.39232000
    15  H          0.62282500       0.48333300       0.60275000
    16  H          0.37717500       0.51666700       0.39725000
    17  C          0.50834000       0.31582000       0.69908000
    18  C          0.49166000       0.68418000       0.30092000
    19  C          0.47804000       0.19532000       0.70198000
    20  C          0.52196000       0.80468000       0.29802000
    21  H          0.41634600       0.13493800       0.76200600
    22  H          0.58365400       0.86506200       0.23799400
    23  C          0.53655000       0.16433000       0.61938000
    24  C          0.46345000       0.83567000       0.38062000
    25  H          0.51420600       0.08372100       0.62363100
    26  H          0.48579400       0.91627900       0.37636900
    27  C          0.44244000       0.34792000       0.78838000
    28  C          0.55756000       0.65208000       0.21162000
    29  C          0.39554000       0.46862000       0.78068000
    30  C          0.60446000       0.53138000       0.21932000
    31  H          0.40802900       0.52975100       0.71745300
    32  H          0.59197100       0.47024900       0.28254700
    33  C          0.33194000       0.49932000       0.86368000
    34  C          0.66806000       0.50068000       0.13632000
    35  H          0.30146100       0.58014000       0.85603800
    36  H          0.69853900       0.41986000       0.14396200
    37  C          0.31264000       0.40992000       0.95918000
    38  C          0.68736000       0.59008000       0.04082000
    39  C          0.36084000       0.28922000       0.96858000
    40  C          0.63916000       0.71078000       0.03142000
    41  H          0.35039700       0.22853700       0.03184500
    42  H          0.64960300       0.77146300       0.96815500
    43  C          0.42304000       0.26052000       0.88508000
    44  C          0.57696000       0.73948000       0.11492000
    45  H          0.45355700       0.17966800       0.89293000
    46  H          0.54644300       0.82033200       0.10707000
    47  C          0.20225000       0.54783000       0.04632000
    48  C          0.79775000       0.45217000       0.95368000
    49  H          0.11010900       0.57663200       0.01187700
    50  H          0.88989100       0.42336800       0.98812300
    51  H          0.30325500       0.60756100       0.01345000
    52  H          0.69674500       0.39243900       0.98655000
    53  C          0.13634000       0.53053000       0.15582000
    54  C          0.86366000       0.46947000       0.84418000
    55  H          0.22784900       0.49531300       0.18911600
    56  H          0.77215100       0.50468700       0.81088400
    57  H          0.03469400       0.47101500       0.18618300
    58  H          0.96530600       0.52898500       0.81381700
    59  C          0.08454000       0.64972000       0.17382000
    60  C          0.91546000       0.35028000       0.82618000
    61  H          0.18762600       0.70719100       0.14901400
    62  H          0.81237400       0.29280900       0.85098600
    63  H         -0.00170100       0.68850900       0.13734400
    64  H          0.00170100       0.31149100       0.86265600
    65  C          0.00714000       0.62242000       0.28492000
    66  C         -0.00714000       0.37758000       0.71508000
    67  H          0.89225100       0.57861200       0.30544200
    68  H          0.10774900       0.42138800       0.69455800
    69  H          0.08227300       0.56695700       0.32168400
    70  H          0.91772700       0.43304300       0.67831600
    71  C          0.98556000       0.73532000       0.31482000
    72  C          0.01444000       0.26468000       0.68518000
    73  H          0.91711900       0.79409500       0.27528000
    74  H          0.08288100       0.20590500       0.72472000
    75  H          0.10095200       0.77559200       0.30039500
    76  H          0.89904800       0.22440800       0.69960500
    77  C          0.89366000       0.70012000       0.42602000
    78  C          0.10634000       0.29988000       0.57398000
    79  H          0.77431400       0.66751100       0.43834200
    80  H          0.22568600       0.33248900       0.56165800
    81  H          0.95513600       0.63396000       0.46457300
    82  H          0.04486400       0.36604000       0.53542700
    83  C          0.88525000       0.80662000       0.46392000
    84  C          0.11475000       0.19338000       0.53608000
    85  H          0.82137000       0.87228200       0.42683000
    86  H          0.17863000       0.12771800       0.57317000
    87  H          0.00418400       0.84019700       0.45128300
    88  H         -0.00418400       0.15980300       0.54871700
    89  C          0.79515000       0.76583000       0.57542000
    90  C          0.20485000       0.23417000       0.42458000
    91  H          0.67821200       0.72900500       0.58804500
    92  H          0.32178800       0.27099500       0.41195500
    93  H          0.86173300       0.70205300       0.61225800
    94  H          0.13826700       0.29794700       0.38774200
    95  C          0.77804000       0.87003000       0.61513000
    96  C          0.22196000       0.12997000       0.38487000
    97  H          0.71612300       0.93558900       0.57645600
    98  H          0.28387700       0.06441100       0.42354400
    99  H          0.89526100       0.90435200       0.60556700
   100  H          0.10473900       0.09564800       0.39443300
   101  C          0.68084000       0.82924000       0.72513000
   102  C          0.31916000       0.17076000       0.27487000
   103  H          0.68031300       0.89798800       0.74682200
   104  H          0.31968700       0.10201200       0.25317800
   105  H          0.73915600       0.76240900       0.76373000
   106  H          0.26084400       0.23759100       0.23627000
   107  H          0.56162200       0.80148300       0.73440400
   108  H          0.43837800       0.19851700       0.26559600
   109  I          0.87603300       0.11586200       0.19235200
   110  I          0.12396700       0.88413800       0.80764800
   111  F          0.22923000      -0.00288160       0.10937140
   112  F          0.77077000       0.00288160       0.89062860
   113  F          0.67633000       0.08649170       0.03949140
   114  F          0.32367000       0.91350830       0.96050860
   115  C          0.83704000       0.04452000       0.02092000
   116  C          0.16296000       0.95548000       0.97908000
   117  C          0.95004000       0.04652000       0.07792000
   118  C          0.04996000       0.95348000       0.92208000
   119  C          0.11384000      -0.00062000       0.05572000
   120  C          0.88616000       0.00062000       0.94428000
