data_TEXLOB
_symmetry_space_group_name_H-M    'P1'
_symmetry_Int_Tables_number       1
loop_
_symmetry_equiv_pos_site_id
_symmetry_equiv_pos_as_xyz
1 x,y,z
_cell_length_a                   13.27847
_cell_length_b                   7.86864
_cell_length_c                   17.35419
_cell_angle_alpha                90.0
_cell_angle_beta                 103.9812
_cell_angle_gamma                90.0
loop_
_atom_site_label
_atom_site_type_symbol
_atom_site_fract_x
_atom_site_fract_y
_atom_site_fract_z
     1  I          0.74540200       0.40821200       0.39894200
     2  I          0.25459800       0.90821200       0.10105800
     3  I          0.25459800       0.59178800       0.60105800
     4  I          0.74540200       0.09178800       0.89894200
     5  F          0.03598140       0.70142000       0.62957100
     6  F          0.96401860       0.20142000       0.87042900
     7  F          0.96401860       0.29858000       0.37042900
     8  F          0.03598140       0.79858000       0.12957100
     9  F          0.84166130       0.63952000       0.55088110
    10  F          0.15833870       0.13952000       0.94911890
    11  F          0.15833870       0.36048000       0.44911890
    12  F          0.84166130       0.86048000       0.05088110
    13  C          0.89705180       0.46543000       0.45895150
    14  C          0.10294820       0.96543000       0.04104850
    15  C          0.10294820       0.53457000       0.54104850
    16  C          0.89705180       0.03457000       0.95895150
    17  C          0.01992000       0.60163000       0.56480150
    18  C          0.98008000       0.10163000       0.93519850
    19  C          0.98008000       0.39837000       0.43519850
    20  C          0.01992000       0.89837000       0.06480150
    21  C          0.91922000       0.56863000       0.52478160
    22  C          0.08078000       0.06863000       0.97521840
    23  C          0.08078000       0.43137000       0.47521840
    24  C          0.91922000       0.93137000       0.02478160
    25  O          0.67568130       0.16893000       0.58600110
    26  O          0.32431870       0.66893000       0.91399890
    27  O          0.32431870       0.83107000       0.41399890
    28  O          0.67568130       0.33107000       0.08600110
    29  C          0.11371180       0.19623000       0.68839140
    30  C          0.88628820       0.69623000       0.81160860
    31  C          0.88628820       0.80377000       0.31160860
    32  C          0.11371180       0.30377000       0.18839140
    33  C          0.94652000       0.08674000       0.60086160
    34  C          0.05348000       0.58674000       0.89913840
    35  C          0.05348000       0.91326000       0.39913840
    36  C          0.94652000       0.41326000       0.10086160
    37  C          0.83992000       0.08184000       0.57684170
    38  C          0.16008000       0.58184000       0.92315830
    39  C          0.16008000       0.91816000       0.42315830
    40  C          0.83992000       0.41816000       0.07684170
    41  C          0.83002000       0.30364000       0.66681180
    42  C          0.16998000       0.80364000       0.83318820
    43  C          0.16998000       0.69636000       0.33318820
    44  C          0.83002000       0.19636000       0.16681180
    45  C         -0.00114820       0.19793000       0.65895140
    46  C          0.00114820       0.69793000       0.84104860
    47  C          0.00114820       0.80207000       0.34104860
    48  C         -0.00114820       0.30207000       0.15895140
    49  C          0.17632000       0.09814000       0.65330190
    50  C          0.82368000       0.59814000       0.84669810
    51  C          0.82368000       0.90186000       0.34669810
    52  C          0.17632000       0.40186000       0.15330190
    53  C          0.28252000       0.09274000       0.68252000
    54  C          0.71748000       0.59274000       0.81748000
    55  C          0.71748000       0.90726000       0.31748000
    56  C          0.28252000       0.40726000       0.18252000
    57  C          0.32922000       0.18734000       0.74840160
    58  C          0.67078000       0.68734000       0.75159840
    59  C          0.67078000       0.81266000       0.25159840
    60  C          0.32922000       0.31266000       0.24840160
    61  C          0.78083180       0.18873000       0.61095140
    62  C          0.21916820       0.68873000       0.88904860
    63  C          0.21916820       0.81127000       0.38904860
    64  C          0.78083180       0.31127000       0.11095140
    65  C          0.93732000       0.30724000       0.69009180
    66  C          0.06268000       0.80724000       0.80990820
    67  C          0.06268000       0.69276000       0.30990820
    68  C          0.93732000       0.19276000       0.19009180
    69  C          0.16242000       0.28855000       0.75458170
    70  C          0.83758000       0.78855000       0.74541830
    71  C          0.83758000       0.71145000       0.24541830
    72  C          0.16242000       0.21145000       0.25458170
    73  C          0.44002000       0.18385000       0.77915180
    74  C          0.55998000       0.68385000       0.72084820
    75  C          0.55998000       0.81615000       0.22084820
    76  C          0.44002000       0.31615000       0.27915180
    77  C          0.26812000       0.28575000       0.78427180
    78  C          0.73188000       0.78575000       0.71572820
    79  C          0.73188000       0.71425000       0.21572820
    80  C          0.26812000       0.21425000       0.28427180
    81  C          0.61162000       0.27935000       0.62012000
    82  C          0.38838000       0.77935000       0.87988000
    83  C          0.38838000       0.72065000       0.37988000
    84  C          0.61162000       0.22065000       0.12012000
    85  N          0.52752000       0.18165000       0.80409180
    86  N          0.47248000       0.68165000       0.69590820
    87  N          0.47248000       0.81835000       0.19590820
    88  N          0.52752000       0.31835000       0.30409180
    89  C          0.50073000       0.22376000       0.58842000
    90  C          0.49927000       0.72376000       0.91158000
    91  C          0.49927000       0.77624000       0.41158000
    92  C          0.50073000       0.27624000       0.08842000
    93  C          0.46244000       0.24408000       0.50053000
    94  C          0.53756000       0.74408000      -0.00053000
    95  C          0.53756000       0.75592000       0.49947000
    96  C          0.46244000       0.25592000       0.00053000
    97  H          0.81020000       0.00640000       0.54091600
    98  H          0.18980000       0.50640000       0.95908400
    99  H          0.18980000      -0.00640000       0.45908400
   100  H          0.81020000       0.49360000       0.04091600
   101  H          0.98081900       0.01530000       0.57941400
   102  H          0.01918100       0.51530000       0.92058600
   103  H          0.01918100      -0.01530000       0.42058600
   104  H          0.98081900       0.48470000       0.07941400
   105  H          0.96620000       0.38840000       0.72721700
   106  H          0.03380000       0.88840000       0.77278300
   107  H          0.03380000       0.61160000       0.27278300
   108  H          0.96620000       0.11160000       0.22721700
   109  H          0.14520000       0.03240000       0.60841700
   110  H          0.85480000       0.53240000       0.89158300
   111  H          0.85480000       0.96760000       0.39158300
   112  H          0.14520000       0.46760000       0.10841700
   113  H          0.63320000       0.26740000       0.68020000
   114  H          0.36680000       0.76740000       0.81980000
   115  H          0.36680000       0.73260000       0.31980000
   116  H          0.63320000       0.23260000       0.18020000
   117  H          0.79420000       0.37340000       0.69061800
   118  H          0.20580000       0.87340000       0.80938200
   119  H          0.20580000       0.62660000       0.30938200
   120  H          0.79420000       0.12660000       0.19061800
   121  H          0.12720000       0.34840000       0.78071800
   122  H          0.87280000       0.84840000       0.71928200
   123  H          0.87280000       0.65160000       0.21928200
   124  H          0.12720000       0.15160000       0.28071800
   125  H          0.62430000       0.39940000       0.60420000
   126  H          0.37570000       0.89940000       0.89580000
   127  H          0.37570000       0.60060000       0.39580000
   128  H          0.62430000       0.10060000       0.10420000
   129  H          0.49030000       0.09240000       0.59720000
   130  H          0.50970000       0.59240000       0.90280000
   131  H          0.50970000       0.90760000       0.40280000
   132  H          0.49030000       0.40760000       0.09720000
   133  H          0.29920000       0.35040000       0.82961900
   134  H          0.70080000       0.85040000       0.67038100
   135  H          0.70080000       0.64960000       0.17038100
   136  H          0.29920000       0.14960000       0.32961900
   137  H          0.32320000       0.02640000       0.65751800
   138  H          0.67680000       0.52640000       0.84248200
   139  H          0.67680000       0.97360000       0.34248200
   140  H          0.32320000       0.47360000       0.15751800
   141  H          0.45530000       0.29650000       0.61220000
   142  H          0.54470000       0.79650000       0.88780000
   143  H          0.54470000       0.70350000       0.38780000
   144  H          0.45530000       0.20350000       0.11220000
   145  H          0.39350000       0.20380000       0.48230000
   146  H          0.60650000       0.70380000       0.01770000
   147  H          0.60650000       0.79620000       0.51770000
   148  H          0.39350000       0.29620000       0.98230000
   149  H          0.50630000       0.18060000       0.47130000
   150  H          0.49370000       0.68060000       0.02870000
   151  H          0.49370000       0.81940000       0.52870000
   152  H          0.50630000       0.31940000       0.97130000
   153  H          0.47440000       0.36370000       0.49430000
   154  H          0.52560000       0.86370000       0.00570000
   155  H          0.52560000       0.63630000       0.50570000
   156  H          0.47440000       0.13630000      -0.00570000
