data_TEXVIE
_symmetry_space_group_name_H-M    'P1'
_symmetry_Int_Tables_number       1
loop_
_symmetry_equiv_pos_site_id
_symmetry_equiv_pos_as_xyz
1 x,y,z
_cell_length_a                   11.520215
_cell_length_b                   7.78491
_cell_length_c                   11.857716
_cell_angle_alpha                90.0
_cell_angle_beta                 114.5592
_cell_angle_gamma                90.0
loop_
_atom_site_label
_atom_site_type_symbol
_atom_site_fract_x
_atom_site_fract_y
_atom_site_fract_z
     1  C          0.43914120       0.77159160       0.50891120
     2  C          0.06085880       0.27159160      -0.00891120
     3  C          0.56085880       0.22840840       0.49108880
     4  C          0.93914120       0.72840840       0.00891120
     5  C          0.38734130       0.71513170       0.58890130
     6  C          0.11265870       0.21513170       0.91109870
     7  C          0.61265870       0.28486830       0.41109870
     8  C          0.88734130       0.78486830       0.08890130
     9  H          0.40810000       0.77070000       0.66520000
    10  H          0.09190000       0.27070000       0.83480000
    11  H          0.59190000       0.22930000       0.33480000
    12  H          0.90810000       0.72930000       0.16520000
    13  C          0.30485130       0.57643180       0.55573140
    14  C          0.19514870       0.07643180       0.94426860
    15  C          0.69514870       0.42356820       0.44426860
    16  C          0.80485130       0.92356820       0.05573140
    17  H          0.27140000       0.53940000       0.61160000
    18  H          0.22860000       0.03940000       0.88840000
    19  H          0.72860000       0.46060000       0.38840000
    20  H          0.77140000       0.96060000       0.11160000
    21  N          0.27034110       0.49259150       0.44883110
    22  N          0.22965890      -0.00740850       0.05116890
    23  N          0.72965890       0.50740850       0.55116890
    24  N          0.77034110       0.00740850       0.94883110
    25  C          0.32048140       0.54729180       0.37218130
    26  C          0.17951860       0.04729180       0.12781870
    27  C          0.67951860       0.45270820       0.62781870
    28  C          0.82048140       0.95270820       0.87218130
    29  H          0.29750000       0.48970000       0.29630000
    30  H          0.20250000      -0.01030000       0.20370000
    31  H          0.70250000       0.51030000       0.70370000
    32  H          0.79750000       0.01030000       0.79630000
    33  C          0.40433130       0.68382180       0.39785130
    34  C          0.09566870       0.18382180       0.10214870
    35  C          0.59566870       0.31617820       0.60214870
    36  C          0.90433130       0.81617820       0.89785130
    37  H          0.43740000       0.71680000       0.34070000
    38  H          0.06260000       0.21680000       0.15930000
    39  H          0.56260000       0.28320000       0.65930000
    40  H          0.93740000       0.78320000       0.84070000
    41  C          0.52951130       0.92226180       0.54145140
    42  C          0.97048870       0.42226180       0.95854860
    43  C          0.47048870       0.07773820       0.45854860
    44  C          0.02951130       0.57773820       0.04145140
    45  H          0.60740000       0.88840000       0.53300000
    46  H          0.89260000       0.38840000       0.96700000
    47  H          0.39260000       0.11160000       0.46700000
    48  H          0.10740000       0.61160000       0.03300000
    49  H          0.55330000       0.95430000       0.62820000
    50  H          0.94670000       0.45430000       0.87180000
    51  H          0.44670000       0.04570000       0.37180000
    52  H          0.05330000       0.54570000       0.12820000
    53  C          0.07678120       0.13624180       0.47256110
    54  C          0.42321880       0.63624180       0.02743890
    55  C          0.92321880       0.86375820       0.52743890
    56  C          0.57678120       0.36375820       0.97256110
    57  C          0.05512130       0.95848000       0.41255120
    58  C          0.44487870       0.45848000       0.08744880
    59  C          0.94487870       0.04152000       0.58744880
    60  C          0.55512130       0.54152000       0.91255120
    61  H          0.98090000       0.96290000       0.33240000
    62  H          0.51910000       0.46290000       0.16760000
    63  H          0.01910000       0.03710000       0.66760000
    64  H          0.48090000       0.53710000       0.83240000
    65  H          0.12960000       0.92700000       0.39710000
    66  H          0.37040000       0.42700000       0.10290000
    67  H          0.87040000       0.07300000       0.60290000
    68  H          0.62960000       0.57300000       0.89710000
    69  C          0.03325120       0.82144820       0.49249130
    70  C          0.46674880       0.32144820       0.00750870
    71  C          0.96674880       0.17855180       0.50750870
    72  C          0.53325120       0.67855180      -0.00750870
    73  H          0.11150000       0.80730000       0.56840000
    74  H          0.38850000       0.30730000       0.93160000
    75  H          0.88850000       0.19270000       0.43160000
    76  H          0.61150000       0.69270000       0.06840000
    77  H          0.01550000       0.71190000       0.44780000
    78  H          0.48450000       0.21190000       0.05220000
    79  H         -0.01550000       0.28810000       0.55220000
    80  H          0.51550000       0.78810000       0.94780000
    81  C          0.20012120       0.14111180       0.58426120
    82  C          0.29987880       0.64111180       0.91573880
    83  C          0.79987880       0.85888820       0.41573880
    84  C          0.70012120       0.35888820       0.08426120
    85  C          0.29834130       0.14640190       0.67239130
    86  C          0.20165870       0.64640190       0.82760870
    87  C          0.70165870       0.85359810       0.32760870
    88  C          0.79834130       0.35359810       0.17239130
    89  H          0.37660000       0.15060000       0.74260000
    90  H          0.12340000       0.65060000       0.75740000
    91  H          0.62340000       0.84940000       0.25740000
    92  H          0.87660000       0.34940000       0.24260000
    93  H          0.14620000       0.33030000       0.41220000
    94  H          0.35380000       0.83030000       0.08780000
    95  H          0.85380000       0.66970000       0.58780000
    96  H          0.64620000       0.16970000       0.91220000
    97  O          0.07775110       0.25676170       0.38224100
    98  O          0.42224890       0.75676170       0.11775900
    99  O          0.92224890       0.74323830       0.61775900
   100  O          0.57775110       0.24323830       0.88224100
