data_TEZHUF
_symmetry_space_group_name_H-M    'P1'
_symmetry_Int_Tables_number       1
loop_
_symmetry_equiv_pos_site_id
_symmetry_equiv_pos_as_xyz
1 x,y,z
_cell_length_a                   9.43762
_cell_length_b                   10.50442
_cell_length_c                   17.32744
_cell_angle_alpha                90.82407
_cell_angle_beta                 95.14038
_cell_angle_gamma                92.151515
loop_
_atom_site_label
_atom_site_type_symbol
_atom_site_fract_x
_atom_site_fract_y
_atom_site_fract_z
     1  N          0.62552000       0.50475180       0.75925120
     2  N          0.37448000       0.49524820       0.24074880
     3  P          0.47769600       0.43937500       0.77648300
     4  P          0.52230400       0.56062500       0.22351700
     5  P          0.69829600       0.64290500       0.76029300
     6  P          0.30170400       0.35709500       0.23970700
     7  C          0.51252000       0.29962000       0.83289130
     8  C          0.48748000       0.70038000       0.16710870
     9  C          0.64923000       0.25242000       0.83930140
    10  C          0.35077000       0.74758000       0.16069860
    11  H          0.72414000       0.29680100       0.81655600
    12  H          0.27586000       0.70319900       0.18344400
    13  C          0.67583000       0.14062000       0.87898150
    14  C          0.32417000       0.85938000       0.12101850
    15  H          0.76895500       0.10862600       0.88377900
    16  H          0.23104500       0.89137400       0.11622100
    17  C          0.56573000       0.07582000       0.91156150
    18  C          0.43427000       0.92418000       0.08843850
    19  H          0.58340600      -0.00149900       0.93784000
    20  H          0.41659400       0.00149900       0.06216000
    21  C          0.42973000       0.12313000       0.90608150
    22  C          0.57027000       0.87687000       0.09391850
    23  H          0.35512300       0.07846300       0.92894000
    24  H          0.64487700       0.92153700       0.07106000
    25  C          0.40273000       0.23542000       0.86729140
    26  C          0.59727000       0.76458000       0.13270860
    27  H          0.31008400       0.26851200       0.86411100
    28  H          0.68991600       0.73148800       0.13588900
    29  C          0.37913000       0.38912000       0.68652140
    30  C          0.62087000       0.61088000       0.31347860
    31  C          0.27543000       0.29042000       0.68317150
    32  C          0.72457000       0.70958000       0.31682850
    33  H          0.25230700       0.24991900       0.72933900
    34  H          0.74769300       0.75008100       0.27066100
    35  C          0.20573000       0.25163000       0.61214170
    36  C          0.79427000       0.74837000       0.38785830
    37  H          0.13562200       0.18399700       0.60986700
    38  H          0.86437800       0.81600300       0.39013300
    39  C          0.23813000       0.31073000       0.54485160
    40  C          0.76187000       0.68927000       0.45514840
    41  H          0.19176000       0.28254700       0.49634500
    42  H          0.80824000       0.71745300       0.50365500
    43  C          0.33763000       0.41083000       0.54808160
    44  C          0.66237000       0.58917000       0.45191840
    45  H          0.35720100       0.45358700       0.50204100
    46  H          0.64279900       0.54641300       0.49795900
    47  C          0.40913000       0.44903000       0.61853160
    48  C          0.59087000       0.55097000       0.38146840
    49  H          0.47913100       0.51666000       0.62032700
    50  H          0.52086900       0.48334000       0.37967300
    51  C          0.37062000       0.53852000       0.83123130
    52  C          0.62938000       0.46148000       0.16876870
    53  C          0.24983000       0.59703000       0.79874160
    54  C          0.75017000       0.40297000       0.20125840
    55  H          0.21297100       0.57626800       0.74708400
    56  H          0.78702900       0.42373200       0.25291600
    57  C          0.18333000       0.68583000       0.84211180
    58  C          0.81667000       0.31417000       0.15788820
    59  H          0.10096600       0.72555900       0.81983800
    60  H          0.89903400       0.27444100       0.18016200
    61  C          0.23603000       0.71643000       0.91719170
    62  C          0.76397000       0.28357000       0.08280830
    63  H          0.19107900       0.77815500       0.94619900
    64  H          0.80892100       0.22184500       0.05380100
    65  C          0.35473000       0.65683000       0.95018150
    66  C          0.64527000       0.34317000       0.04981850
    67  H          0.38989800       0.67636300       0.00225100
    68  H          0.61010200       0.32363700      -0.00225100
    69  C          0.42183000       0.56922000       0.90759140
    70  C          0.57817000       0.43078000       0.09240860
    71  H          0.50366000       0.52932900       0.93039800
    72  H          0.49634000       0.47067100       0.06960200
    73  C          0.58142000       0.76462000       0.72303150
    74  C          0.41858000       0.23538000       0.27696850
    75  C          0.56433000       0.78243000       0.64297160
    76  C          0.43567000       0.21757000       0.35702840
    77  H          0.62215200       0.73851100       0.61008400
    78  H          0.37784800       0.26148900       0.38991600
    79  C          0.46343000       0.86363000       0.61148190
    80  C          0.53657000       0.13637000       0.38851810
    81  H          0.45184300       0.87550000       0.55706700
    82  H          0.54815700       0.12450000       0.44293300
    83  C          0.37923000       0.92763000       0.65962000
    84  C          0.62077000       0.07237000       0.34038000
    85  H          0.31005300       0.98347300       0.63794700
    86  H          0.68994700       0.01652700       0.36205300
    87  C          0.39523000       0.91083000       0.73872000
    88  C          0.60477000       0.08917000       0.26128000
    89  H          0.33703400       0.95490700       0.77132400
    90  H          0.66296600       0.04509300       0.22867600
    91  C          0.49603000       0.82952000       0.77066170
    92  C          0.50397000       0.17048000       0.22933830
    93  H          0.50692100       0.81799300       0.82512000
    94  H          0.49307900       0.18200700       0.17488000
    95  C          0.83932000       0.63832000       0.69702130
    96  C          0.16068000       0.36168000       0.30297870
    97  C          0.92463000       0.74733000       0.68780150
    98  C          0.07537000       0.25267000       0.31219850
    99  H          0.90833400       0.82424700       0.71450500
   100  H          0.09166600       0.17575300       0.28549500
   101  C          0.03363000       0.74233000       0.63924160
   102  C          0.96637000       0.25767000       0.36075840
   103  H          0.09246900       0.81618600       0.63313000
   104  H          0.90753100       0.18381400       0.36687000
   105  C          0.05743000       0.63163000       0.59987160
   106  C          0.94257000       0.36837000       0.40012840
   107  H          0.13246100       0.62926100       0.56686700
   108  H          0.86753900       0.37073900       0.43313300
   109  C          0.97153000       0.52303000       0.60841160
   110  C          0.02847000       0.47697000       0.39158840
   111  H         -0.01245200       0.44669800       0.58095000
   112  H          0.01245200       0.55330200       0.41905000
   113  C          0.86273000       0.52602000       0.65683150
   114  C          0.13727000       0.47398000       0.34316850
   115  H          0.80420300       0.45180400       0.66273000
   116  H          0.19579700       0.54819600       0.33727000
   117  C          0.77392000       0.69132000       0.85600130
   118  C          0.22608000       0.30868000       0.14399870
   119  C          0.81243000       0.81882000       0.87372150
   120  C          0.18757000       0.18118000       0.12627850
   121  H          0.79678400       0.88202600       0.83558200
   122  H          0.20321600       0.11797400       0.16441800
   123  C          0.87353000       0.85253000       0.94740160
   124  C          0.12647000       0.14747000       0.05259840
   125  H          0.90049100       0.93901800       0.95937900
   126  H          0.09950900       0.06098200       0.04062100
   127  C          0.89543000       0.76083000       0.00375150
   128  C          0.10457000       0.23917000      -0.00375150
   129  H          0.93443000       0.78500700       0.05452300
   130  H          0.06557000       0.21499300       0.94547700
   131  C          0.86043000       0.63413000       0.98570160
   132  C          0.13957000       0.36587000       0.01429840
   133  H          0.87715500       0.57120300       0.02392700
   134  H          0.12284500       0.42879700       0.97607300
   135  C          0.80073000       0.59842000       0.91186150
   136  C          0.19927000       0.40158000       0.08813850
   137  H          0.77811800       0.51115800       0.89945900
   138  H          0.22188200       0.48884200       0.10054100
   139  Br         0.04078300       0.06509300       0.78572200
   140  Br         0.95921700       0.93490700       0.21427800
   141  O          0.23244000       0.74367000       0.45560180
   142  O          0.76756000       0.25633000       0.54439820
   143  C          0.23243000       0.83817000       0.41697180
   144  C          0.76757000       0.16183000       0.58302820
   145  C          0.16255000       0.95486000       0.43973000
   146  C          0.83745000       0.04514000       0.56027000
   147  H          0.11418800       0.93893800       0.48656600
   148  H          0.88581200       0.06106200       0.51343400
   149  H          0.09259800       0.97865300       0.39759000
   150  H          0.90740200       0.02134700       0.60241000
   151  H          0.23424800       0.02432400       0.44990100
   152  H          0.76575200       0.97567600       0.55009900
   153  C          0.30114000       0.84036000       0.34412000
   154  C          0.69886000       0.15964000       0.65588000
   155  H          0.34974700       0.76061400       0.33776200
   156  H          0.65025300       0.23938600       0.66223800
   157  H          0.37058200       0.91230100       0.34548800
   158  H          0.62941800       0.08769900       0.65451200
   159  H          0.22881100       0.84974900       0.30053800
   160  H          0.77118900       0.15025100       0.69946200
   161  O         -0.00536000       0.36184000       0.82032000
   162  O          0.00536000       0.63816000       0.17968000
