data_TEZVON
_symmetry_space_group_name_H-M    'P1'
_symmetry_Int_Tables_number       1
loop_
_symmetry_equiv_pos_site_id
_symmetry_equiv_pos_as_xyz
1 x,y,z
_cell_length_a                   8.29502
_cell_length_b                   10.28523
_cell_length_c                   10.49283
_cell_angle_alpha                79.1172
_cell_angle_beta                 89.1212
_cell_angle_gamma                70.8943
loop_
_atom_site_label
_atom_site_type_symbol
_atom_site_fract_x
_atom_site_fract_y
_atom_site_fract_z
     1  I          0.77556200       0.58168200       0.62946200
     2  I          0.22443800       0.41831800       0.37053800
     3  S          0.67401100       0.33921700       0.02483700
     4  S          0.32598900       0.66078300       0.97516300
     5  F          0.58152000       0.57782170       0.36878150
     6  F          0.41848000       0.42217830       0.63121850
     7  F          0.29262000       0.75243180       0.23741150
     8  F          0.70738000       0.24756820       0.76258850
     9  F          0.21992000       0.05162150       0.53777150
    10  F          0.78008000       0.94837850       0.46222850
    11  F          0.50658190       0.87755150       0.67085140
    12  F          0.49341810       0.12244850       0.32914860
    13  O          0.09602000      -0.01130810       0.32395180
    14  O          0.90398000       0.01130810       0.67604820
    15  C          0.55333000       0.72273000       0.52322000
    16  C          0.44667000       0.27727000       0.47678000
    17  C          0.49384000       0.69423000       0.41283000
    18  C          0.50616000       0.30577000       0.58717000
    19  C          0.34544000       0.78343000       0.34562000
    20  C          0.65456000       0.21657000       0.65438000
    21  C          0.24883000       0.90423000       0.38612000
    22  C          0.75117000       0.09577000       0.61388000
    23  C          0.30833000       0.93343000       0.49652000
    24  C          0.69167000       0.06657000       0.50348000
    25  C          0.45663000       0.84393000       0.56312000
    26  C          0.54337000       0.15607000       0.43688000
    27  C          0.11373000       0.09103000       0.21393000
    28  C          0.88627000       0.90897000       0.78607000
    29  H          0.16875800       0.04355200       0.14301700
    30  H          0.83124200       0.95644800       0.85698300
    31  H          0.18532700       0.14300700       0.23967600
    32  H          0.81467300       0.85699300       0.76032400
    33  C          0.93847000       0.18953000       0.16922000
    34  C          0.06153000       0.81047000       0.83078000
    35  C          0.87307000       0.21523000       0.04533000
    36  C          0.12693000       0.78477000       0.95467000
    37  H          0.93079600       0.16996600       0.97859700
    38  H          0.06920400       0.83003400       0.02140300
    39  C          0.67356000       0.35693000       0.18292000
    40  C          0.32644000       0.64307000       0.81708000
    41  H          0.58149300       0.41773800       0.22065000
    42  H          0.41850700       0.58226200       0.77935000
    43  C          0.82456000       0.27133000       0.24883000
    44  C          0.17544000       0.72867000       0.75117000
    45  H          0.84982500       0.26731600       0.33778100
    46  H          0.15017500       0.73268400       0.66221900
    47  N          0.94653000       0.61602000       0.22762000
    48  N          0.05347000       0.38398000       0.77238000
    49  C          0.53474000       0.93473000      -0.00653000
    50  C          0.46526000       0.06527000       0.00653000
    51  H          0.48975700       0.90621200       0.92490200
    52  H          0.51024300       0.09378800       0.07509800
    53  C          0.67754000       0.82743000       0.07713000
    54  C          0.32246000       0.17257000       0.92287000
    55  C          0.75184000       0.85143000       0.18523000
    56  C          0.24816000       0.14857000       0.81477000
    57  H          0.71189800       0.94077700       0.20901200
    58  H          0.28810200       0.05922300       0.79098800
    59  C          0.88444000       0.74343000       0.25753000
    60  C          0.11556000       0.25657000       0.74247000
    61  H          0.93301100       0.76073500       0.33133900
    62  H          0.06698900       0.23926500       0.66866100
    63  C          0.87553000       0.59503000       0.12333000
    64  C          0.12447000       0.40497000       0.87667000
    65  H          0.91853500       0.50504300       0.10090800
    66  H          0.08146500       0.49495700       0.89909200
    67  C          0.74344000       0.69643000       0.04633000
    68  C          0.25656000       0.30357000       0.95367000
    69  H          0.69832000       0.67597100       0.97265300
    70  H          0.30168000       0.32402900       0.02734700
