data_TGLYSU07
_symmetry_space_group_name_H-M    'P1'
_symmetry_Int_Tables_number       1
loop_
_symmetry_equiv_pos_site_id
_symmetry_equiv_pos_as_xyz
1 x,y,z
_cell_length_a                   9.1906
_cell_length_b                   12.6623
_cell_length_c                   5.7517
_cell_angle_alpha                90.0
_cell_angle_beta                 105.697
_cell_angle_gamma                90.0
loop_
_atom_site_label
_atom_site_type_symbol
_atom_site_fract_x
_atom_site_fract_y
_atom_site_fract_z
     1  O          0.60652000       0.24305000       0.02844000
     2  O          0.39348000       0.74305000       0.97156000
     3  O          0.49453000       0.23384000       0.32785000
     4  O          0.50547000       0.73384000       0.67215000
     5  C          0.48914000       0.24055000       0.11606000
     6  C          0.51086000       0.74055000       0.88394000
     7  C          0.33974000       0.24436000       0.92466000
     8  C          0.66026000       0.74436000       0.07534000
     9  N          0.35795000       0.28725000       0.69488000
    10  N          0.64205000       0.78725000       0.30512000
    11  H          0.29404000       0.16546000       0.89396000
    12  H          0.70596000       0.66546000       0.10604000
    13  H          0.26254000       0.29406000      -0.01284000
    14  H          0.73746000       0.79406000       0.01284000
    15  H          0.41460000       0.36260000       0.72411000
    16  H          0.58540000       0.86260000       0.27589000
    17  H          0.25160000       0.30260000       0.58412000
    18  H          0.74840000       0.80260000       0.41588000
    19  H          0.37670000       0.21040000       0.66810000
    20  H          0.62330000       0.71040000       0.33190000
    21  O          0.21414000       0.49834000       0.95322000
    22  O          0.78586000      -0.00166000       0.04678000
    23  O          0.44804000       0.51914000       0.19148000
    24  O          0.55196000       0.01914000       0.80852000
    25  C          0.30186000       0.52464000       0.14181100
    26  C          0.69814000       0.02464000       0.85818900
    27  C          0.24776000       0.56845000       0.34941100
    28  C          0.75224000       0.06845000       0.65058900
    29  N          0.08265000       0.57404000       0.29021000
    30  N          0.91735000       0.07404000       0.70979000
    31  H          0.29286000       0.64715000       0.39061100
    32  H          0.70714000       0.14715000       0.60938900
    33  H          0.28846000       0.51835000       0.50551100
    34  H          0.71154000       0.01835000       0.49448900
    35  H          0.06370000       0.61450000       0.20113000
    36  H          0.93630000       0.11450000       0.79887000
    37  H          0.05760000       0.60450000       0.42112000
    38  H          0.94240000       0.10450000       0.57888000
    39  H          0.03970000       0.51960000       0.24211000
    40  H          0.96030000       0.01960000       0.75789000
    41  O          0.77944000       0.49564000       0.05488000
    42  O          0.22056000      -0.00436000       0.94512000
    43  O          0.54094000       0.46814000       0.83978000
    44  O          0.45906000       0.96814000       0.16022000
    45  C          0.68275000       0.46844000       0.87049000
    46  C          0.31725000       0.96844000       0.12951000
    47  C          0.72966000       0.43105000       0.65021200
    48  C          0.27034000       0.93105000       0.34978800
    49  N          0.89445000       0.43034000       0.69809000
    50  N          0.10555000       0.93034000       0.30191000
    51  H          0.68316000       0.48425000       0.50211200
    52  H          0.31684000       0.98425000       0.49788800
    53  H          0.68616000       0.35295000       0.60211200
    54  H          0.31384000       0.85295000       0.39788800
    55  H          0.93060000       0.37950000       0.83612000
    56  H          0.06940000       0.87950000       0.16388000
    57  H          0.91560000       0.40350000       0.57312000
    58  H          0.08440000       0.90350000       0.42688000
    59  H          0.92260000       0.50160000       0.69311000
    60  H          0.07740000       0.00160000       0.30689000
    61  S         -0.00044300       0.25000000       0.27327110
    62  S          0.00044300       0.75000000       0.72672890
    63  O          0.96532000       0.25194000       0.00883000
    64  O          0.03468000       0.75194000      -0.00883000
    65  O          0.85802000       0.24934000       0.35034000
    66  O          0.14198000       0.74934000       0.64966000
    67  O          0.08804000       0.15643000       0.37349000
    68  O          0.91196000       0.65643000       0.62651000
    69  O          0.08514000       0.34563000       0.37637000
    70  O          0.91486000       0.84563000       0.62363000
