data_TGLYSU26
_symmetry_space_group_name_H-M    'P1'
_symmetry_Int_Tables_number       1
loop_
_symmetry_equiv_pos_site_id
_symmetry_equiv_pos_as_xyz
1 x,y,z
_cell_length_a                   9.42079
_cell_length_b                   12.6601
_cell_length_c                   5.73156
_cell_angle_alpha                90.0
_cell_angle_beta                 110.361
_cell_angle_gamma                90.0
loop_
_atom_site_label
_atom_site_type_symbol
_atom_site_fract_x
_atom_site_fract_y
_atom_site_fract_z
     1  S         -0.00025600       0.25000000       0.22624700
     2  S          0.00025600       0.75000000       0.77375300
     3  O          0.85741000       0.24783000       0.00742000
     4  O          0.14259000       0.74783000      -0.00742000
     5  O          0.96502000       0.25213000       0.45602000
     6  O          0.03498000       0.75213000       0.54398000
     7  O          0.08443000       0.34602000       0.20881000
     8  O          0.91557000       0.84602000       0.79119000
     9  O          0.08753000       0.15592000       0.21371000
    10  O          0.91247000       0.65592000       0.78629000
    11  O          0.60642000       0.24184000       0.07763000
    12  O          0.39358000       0.74184000       0.92237000
    13  O          0.49492000       0.23323000       0.66713000
    14  O          0.50508000       0.73323000       0.33287000
    15  C          0.48972000       0.23924000       0.87334000
    16  C          0.51028000       0.73924000       0.12666000
    17  C          0.34012000       0.24424000       0.91564000
    18  C          0.65988000       0.74424000       0.08436000
    19  N          0.35713000       0.28713000       0.16106000
    20  N          0.64287000       0.78713000       0.83894000
    21  H          0.41840000       0.34130000       0.20270000
    22  H          0.58160000       0.84130000       0.79730000
    23  H          0.27440000       0.29720000       0.18350000
    24  H          0.72560000       0.79720000       0.81650000
    25  H          0.37830000       0.22430000       0.22850000
    26  H          0.62170000       0.72430000       0.77150000
    27  H          0.26540000       0.28520000       0.78960000
    28  H          0.73460000       0.78520000       0.21040000
    29  H          0.30540000       0.17330000       0.90260000
    30  H          0.69460000       0.67330000       0.09740000
    31  H          0.69930000       0.24550000       0.03550000
    32  H          0.30070000       0.74550000       0.96450000
    33  O          0.77973000       0.49393000       0.22465000
    34  O          0.22027000      -0.00607000       0.77535000
    35  O          0.53973000       0.46873000       0.20106000
    36  O          0.46027000       0.96873000       0.79894000
    37  C          0.68414000       0.46823000       0.31396000
    38  C          0.31586000       0.96823000       0.68604000
    39  C          0.73004000       0.43034000       0.57847000
    40  C          0.26996000       0.93034000       0.42153000
    41  N          0.89434000       0.42983000       0.69507000
    42  N          0.10566000       0.92983000       0.30493000
    43  H          0.92440000       0.50130000       0.72560000
    44  H          0.07560000       0.00130000       0.27440000
    45  H          0.90650000       0.41540000       0.80270000
    46  H          0.09350000       0.91540000       0.19730000
    47  H          0.94640000       0.36730000       0.59870000
    48  H          0.05360000       0.86730000       0.40130000
    49  H          0.70150000       0.49340000       0.70070000
    50  H          0.29850000      -0.00660000       0.29930000
    51  H          0.70140000       0.36830000       0.58170000
    52  H          0.29860000       0.86830000       0.41830000
    53  H          0.51260000       0.48940000       0.07170000
    54  H          0.48740000      -0.01060000       0.92830000
    55  O          0.21393000       0.49713000       0.76085000
    56  O          0.78607000      -0.00287000       0.23915000
    57  O          0.44823000       0.51893000       0.75555000
    58  O          0.55177000       0.01893000       0.24445000
    59  C          0.30264000       0.52423000       0.66027000
    60  C          0.69736000       0.02423000       0.33973000
    61  C          0.24815000       0.56814000       0.39947000
    62  C          0.75185000       0.06814000       0.60053000
    63  N          0.08363000       0.57313000       0.29306000
    64  N          0.91637000       0.07313000       0.70694000
    65  H          0.03240000       0.51430000       0.29260000
    66  H          0.96760000       0.01430000       0.70740000
    67  H          0.05430000       0.60220000       0.12750000
    68  H          0.94570000       0.10220000       0.87250000
    69  H          0.06040000       0.60930000       0.37170000
    70  H          0.93960000       0.10930000       0.62830000
    71  H          0.30140000       0.53730000       0.32770000
    72  H          0.69860000       0.03730000       0.67230000
    73  H          0.28570000       0.63540000       0.38190000
    74  H          0.71430000       0.13540000       0.61810000
