data_TIBZIO
_symmetry_space_group_name_H-M    'P1'
_symmetry_Int_Tables_number       1
loop_
_symmetry_equiv_pos_site_id
_symmetry_equiv_pos_as_xyz
1 x,y,z
_cell_length_a                   13.04862
_cell_length_b                   11.20912
_cell_length_c                   9.09053
_cell_angle_alpha                90.0
_cell_angle_beta                 121.6252
_cell_angle_gamma                90.0
loop_
_atom_site_label
_atom_site_type_symbol
_atom_site_fract_x
_atom_site_fract_y
_atom_site_fract_z
     1  O         -0.00000000       0.05806170       0.25000000
     2  O          0.50000000       0.55806170       0.25000000
     3  O         -0.00000000       0.94193830       0.75000000
     4  O          0.50000000       0.44193830       0.75000000
     5  N         -0.00000000       0.17689190       0.25000000
     6  N          0.50000000       0.67689190       0.25000000
     7  N         -0.00000000       0.82310810       0.75000000
     8  N          0.50000000       0.32310810       0.75000000
     9  C          0.92778830       0.23638180       0.10252000
    10  C          0.42778830       0.73638180       0.10252000
    11  C          0.07221170       0.23638180       0.39748000
    12  C          0.57221170       0.73638180       0.39748000
    13  C          0.07221170       0.76361820       0.89748000
    14  C          0.57221170       0.26361820       0.89748000
    15  C          0.92778830       0.76361820       0.60252000
    16  C          0.42778830       0.26361820       0.60252000
    17  H          0.87900000       0.19450000       0.00060000
    18  H          0.37900000       0.69450000       0.00060000
    19  H          0.12100000       0.19450000       0.49940000
    20  H          0.62100000       0.69450000       0.49940000
    21  H          0.12100000       0.80550000      -0.00060000
    22  H          0.62100000       0.30550000      -0.00060000
    23  H          0.87900000       0.80550000       0.50060000
    24  H          0.37900000       0.30550000       0.50060000
    25  C          0.92581820       0.35833180       0.10183000
    26  C          0.42581820       0.85833180       0.10183000
    27  C          0.07418180       0.35833180       0.39817000
    28  C          0.57418180       0.85833180       0.39817000
    29  C          0.07418180       0.64166820       0.89817000
    30  C          0.57418180       0.14166820       0.89817000
    31  C          0.92581820       0.64166820       0.60183000
    32  C          0.42581820       0.14166820       0.60183000
    33  H          0.87360000       0.39840000      -0.00030000
    34  H          0.37360000       0.89840000      -0.00030000
    35  H          0.12640000       0.39840000       0.50030000
    36  H          0.62640000       0.89840000       0.50030000
    37  H          0.12640000       0.60160000       0.00030000
    38  H          0.62640000       0.10160000       0.00030000
    39  H          0.87360000       0.60160000       0.49970000
    40  H          0.37360000       0.10160000       0.49970000
    41  C         -0.00000000       0.42342000       0.25000000
    42  C          0.50000000       0.92342000       0.25000000
    43  C         -0.00000000       0.57658000       0.75000000
    44  C          0.50000000       0.07658000       0.75000000
    45  C         -0.00000000       0.55693000       0.25000000
    46  C          0.50000000       0.05693000       0.25000000
    47  C         -0.00000000       0.44307000       0.75000000
    48  C          0.50000000       0.94307000       0.75000000
    49  H          0.96450000       0.58540000       0.13370000
    50  H          0.46450000       0.08540000       0.13370000
    51  H          0.03550000       0.58540000       0.36630000
    52  H          0.53550000       0.08540000       0.36630000
    53  H          0.03550000       0.41460000       0.86630000
    54  H          0.53550000       0.91460000       0.86630000
    55  H          0.96450000       0.41460000       0.63370000
    56  H          0.46450000       0.91460000       0.63370000
    57  O          0.82209150       0.93184140       0.23888190
    58  O          0.32209150       0.43184140       0.23888190
    59  O          0.17790850       0.93184140       0.26111810
    60  O          0.67790850       0.43184140       0.26111810
    61  O          0.17790850       0.06815860       0.76111810
    62  O          0.67790850       0.56815860       0.76111810
    63  O          0.82209150       0.06815860       0.73888190
    64  O          0.32209150       0.56815860       0.73888190
    65  H          0.87620000       0.98030000       0.23670000
    66  H          0.37620000       0.48030000       0.23670000
    67  H          0.12380000       0.98030000       0.26330000
    68  H          0.62380000       0.48030000       0.26330000
    69  H          0.12380000       0.01970000       0.76330000
    70  H          0.62380000       0.51970000       0.76330000
    71  H          0.87620000       0.01970000       0.73670000
    72  H          0.37620000       0.51970000       0.73670000
    73  C          0.78890170       0.84215170       0.11972000
    74  C          0.28890170       0.34215170       0.11972000
    75  C          0.21109830       0.84215170       0.38028000
    76  C          0.71109830       0.34215170       0.38028000
    77  C          0.21109830       0.15784830       0.88028000
    78  C          0.71109830       0.65784830       0.88028000
    79  C          0.78890170       0.15784830       0.61972000
    80  C          0.28890170       0.65784830       0.61972000
    81  C          0.82546180       0.83686180       0.00202000
    82  C          0.32546180       0.33686180       0.00202000
    83  C          0.17453820       0.83686180       0.49798000
    84  C          0.67453820       0.33686180       0.49798000
    85  C          0.17453820       0.16313820      -0.00202000
    86  C          0.67453820       0.66313820      -0.00202000
    87  C          0.82546180       0.16313820       0.50202000
    88  C          0.32546180       0.66313820       0.50202000
    89  H          0.87660000       0.89500000       0.00300000
    90  H          0.37660000       0.39500000       0.00300000
    91  H          0.12340000       0.89500000       0.49700000
    92  H          0.62340000       0.39500000       0.49700000
    93  H          0.12340000       0.10500000      -0.00300000
    94  H          0.62340000       0.60500000      -0.00300000
    95  H          0.87660000       0.10500000       0.50300000
    96  H          0.37660000       0.60500000       0.50300000
    97  C          0.71389180       0.75461190       0.11672000
    98  C          0.21389180       0.25461190       0.11672000
    99  C          0.28610820       0.75461190       0.38328000
   100  C          0.78610820       0.25461190       0.38328000
   101  C          0.28610820       0.24538810       0.88328000
   102  C          0.78610820       0.74538810       0.88328000
   103  C          0.71389180       0.24538810       0.61672000
   104  C          0.21389180       0.74538810       0.61672000
   105  H          0.68940000       0.75720000       0.19600000
   106  H          0.18940000       0.25720000       0.19600000
   107  H          0.31060000       0.75720000       0.30400000
   108  H          0.81060000       0.25720000       0.30400000
   109  H          0.31060000       0.24280000       0.80400000
   110  H          0.81060000       0.74280000       0.80400000
   111  H          0.68940000       0.24280000       0.69600000
   112  H          0.18940000       0.74280000       0.69600000
