data_TICDUF
_symmetry_space_group_name_H-M    'P1'
_symmetry_Int_Tables_number       1
loop_
_symmetry_equiv_pos_site_id
_symmetry_equiv_pos_as_xyz
1 x,y,z
_cell_length_a                   49.20866
_cell_length_b                   5.029201
_cell_length_c                   9.840101
_cell_angle_alpha                90.0
_cell_angle_beta                 98.18601
_cell_angle_gamma                90.0
loop_
_atom_site_label
_atom_site_type_symbol
_atom_site_fract_x
_atom_site_fract_y
_atom_site_fract_z
     1  O          0.49998500       0.57105000       0.75003000
     2  O          0.49998500       0.42895000       0.25003000
     3  O         -0.00001500       0.07105000       0.75003000
     4  O         -0.00001500       0.92895000       0.25003000
     5  N          0.58376600       0.56425000       0.01903000
     6  N          0.58376600       0.43575000       0.51903000
     7  N          0.08376600       0.06425000       0.01903000
     8  N          0.08376600       0.93575000       0.51903000
     9  H          0.59330000       0.68530000       0.06980000
    10  H          0.59330000       0.31470000       0.56980000
    11  H          0.09330000       0.18530000       0.06980000
    12  H          0.09330000       0.81470000       0.56980000
    13  N          0.49390600       0.15235000       0.66723000
    14  N          0.49390600       0.84765000       0.16723000
    15  N          0.99390600       0.65235000       0.66723000
    16  N          0.99390600       0.34765000       0.16723000
    17  H          0.49860000      -0.01600000       0.67830000
    18  H          0.49860000       0.01600000       0.17830000
    19  H         -0.00140000       0.48400000       0.67830000
    20  H         -0.00140000       0.51600000       0.17830000
    21  N          0.47616600       0.22956000       0.54673000
    22  N          0.47616600       0.77044000       0.04673000
    23  N          0.97616600       0.72956000       0.54673000
    24  N          0.97616600       0.27044000       0.04673000
    25  H          0.46620000       0.09230000       0.51430000
    26  H          0.46620000       0.90770000       0.01430000
    27  H          0.96620000       0.59230000       0.51430000
    28  H          0.96620000       0.40770000       0.01430000
    29  H          0.48600000       0.28560000       0.48450000
    30  H          0.48600000       0.71440000       0.98450000
    31  H          0.98600000       0.78560000       0.48450000
    32  H          0.98600000       0.21440000       0.98450000
    33  C          0.59425700       0.38966000       0.93223000
    34  C          0.59425700       0.61034000       0.43223000
    35  C          0.09425700       0.88966000       0.93223000
    36  C          0.09425700       0.11034000       0.43223000
    37  C          0.62102700       0.35867000       0.90483000
    38  C          0.62102700       0.64133000       0.40483000
    39  C          0.12102700       0.85867000       0.90483000
    40  C          0.12102700       0.14133000       0.40483000
    41  H          0.63540000       0.47100000       0.94550000
    42  H          0.63540000       0.52900000       0.44550000
    43  H          0.13540000       0.97100000       0.94550000
    44  H          0.13540000       0.02900000       0.44550000
    45  C          0.62568700       0.15587000       0.81534000
    46  C          0.62568700       0.84413000       0.31534000
    47  C          0.12568700       0.65587000       0.81534000
    48  C          0.12568700       0.34413000       0.31534000
    49  H          0.64370000       0.12870000       0.79380000
    50  H          0.64370000       0.87130000       0.29380000
    51  H          0.14370000       0.62870000       0.79380000
    52  H          0.14370000       0.37130000       0.29380000
    53  C          0.60430800      -0.01027000       0.75583000
    54  C          0.60430800       0.01027000       0.25583000
    55  C          0.10430800       0.48973000       0.75583000
    56  C          0.10430800       0.51027000       0.25583000
    57  H          0.60820000       0.85120000       0.69600000
    58  H          0.60820000       0.14880000       0.19600000
    59  H          0.10820000       0.35120000       0.69600000
    60  H          0.10820000       0.64880000       0.19600000
    61  C          0.57759700       0.02336000       0.78233000
    62  C          0.57759700      -0.02336000       0.28233000
    63  C          0.07759700       0.52336000       0.78233000
    64  C          0.07759700       0.47664000       0.28233000
    65  H          0.56320000       0.91080000       0.74090000
    66  H          0.56320000       0.08920000       0.24090000
    67  H          0.06320000       0.41080000       0.74090000
    68  H          0.06320000       0.58920000       0.24090000
    69  C          0.57232600       0.22806000       0.87193000
    70  C          0.57232600       0.77194000       0.37193000
    71  C          0.07232600       0.72806000       0.87193000
    72  C          0.07232600       0.27194000       0.37193000
    73  C          0.54807600       0.31676000       0.92593000
    74  C          0.54807600       0.68324000       0.42593000
    75  C          0.04807600       0.81676000       0.92593000
    76  C          0.04807600       0.18324000       0.42593000
    77  C          0.55625700       0.52056000       0.01413000
    78  C          0.55625700       0.47944000       0.51413000
    79  C          0.05625700       0.02056000       0.01413000
    80  C          0.05625700      -0.02056000       0.51413000
    81  H          0.54450000       0.61760000       0.06470000
    82  H          0.54450000       0.38240000       0.56470000
    83  H          0.04450000       0.11760000       0.06470000
    84  H          0.04450000       0.88240000       0.56470000
    85  C          0.51969700       0.20636000       0.89303000
    86  C          0.51969700       0.79364000       0.39303000
    87  C          0.01969700       0.70636000       0.89303000
    88  C          0.01969700       0.29364000       0.39303000
    89  H          0.50960000       0.23820000       0.97170000
    90  H          0.50960000       0.76180000       0.47170000
    91  H          0.00960000       0.73820000       0.97170000
    92  H          0.00960000       0.26180000       0.47170000
    93  H          0.52080000       0.01160000       0.88000000
    94  H          0.52080000      -0.01160000       0.38000000
    95  H          0.02080000       0.51160000       0.88000000
    96  H          0.02080000       0.48840000       0.38000000
    97  C          0.50367600       0.32916000       0.76453000
    98  C          0.50367600       0.67084000       0.26453000
    99  C          0.00367600       0.82916000       0.76453000
   100  C          0.00367600       0.17084000       0.26453000
   101  O          0.29683500       0.21064000       0.10022000
   102  O          0.29683500       0.78936000       0.60022000
   103  O          0.79683500       0.71064000       0.10022000
   104  O          0.79683500       0.28936000       0.60022000
   105  O          0.36512500       0.08104000       0.30272000
   106  O          0.36512500       0.91896000       0.80272000
   107  O          0.86512500       0.58104000       0.30272000
   108  O          0.86512500       0.41896000       0.80272000
   109  H          0.35040000       0.04370000       0.25220000
   110  H          0.35040000       0.95630000       0.75220000
   111  H          0.85040000       0.54370000       0.25220000
   112  H          0.85040000       0.45630000       0.75220000
   113  O          0.45568500       0.76285000       0.43113000
   114  O          0.45568500       0.23715000       0.93113000
   115  O          0.95568500       0.26285000       0.43113000
   116  O          0.95568500       0.73715000       0.93113000
   117  H          0.46230000       0.60910000       0.44110000
   118  H          0.46230000       0.39090000       0.94110000
   119  H          0.96230000       0.10910000       0.44110000
   120  H          0.96230000       0.89090000       0.94110000
   121  N          0.25631600       0.47405000       0.70597000
   122  N          0.25631600       0.52595000       0.20597000
   123  N          0.75631600      -0.02595000       0.70597000
   124  N          0.75631600       0.02595000       0.20597000
   125  H          0.26320000       0.59880000       0.65830000
   126  H          0.26320000       0.40120000       0.15830000
   127  H          0.76320000       0.09880000       0.65830000
   128  H          0.76320000       0.90120000       0.15830000
   129  N          0.30807500       0.79135000       0.04573000
   130  N          0.30807500       0.20865000       0.54573000
   131  N          0.80807500       0.29135000       0.04573000
   132  N          0.80807500       0.70865000       0.54573000
   133  H          0.30350000       0.64540000      -0.00150000
   134  H          0.30350000       0.35460000       0.49850000
   135  H          0.80350000       0.14540000      -0.00150000
   136  H          0.80350000       0.85460000       0.49850000
   137  N          0.33380500       0.82065000       0.12203000
   138  N          0.33380500       0.17935000       0.62203000
   139  N          0.83380500       0.32065000       0.12203000
   140  N          0.83380500       0.67935000       0.62203000
   141  C          0.22908700       0.40716000       0.69557000
   142  C          0.22908700       0.59284000       0.19557000
   143  C          0.72908700       0.90716000       0.69557000
   144  C          0.72908700       0.09284000       0.19557000
   145  C          0.20624700       0.50576000       0.60927000
   146  C          0.20624700       0.49424000       0.10927000
   147  C          0.70624700       0.00576000       0.60927000
   148  C          0.70624700      -0.00576000       0.10927000
   149  H          0.20800000       0.64430000       0.54550000
   150  H          0.20800000       0.35570000       0.04550000
   151  H          0.70800000       0.14430000       0.54550000
   152  H          0.70800000       0.85570000       0.04550000
   153  C          0.18113700       0.39327000       0.62046000
   154  C          0.18113700       0.60673000       0.12046000
   155  C          0.68113700       0.89327000       0.62046000
   156  C          0.68113700       0.10673000       0.12046000
   157  H          0.16520000       0.45830000       0.56420000
   158  H          0.16520000       0.54170000       0.06420000
   159  H          0.66520000       0.95830000       0.56420000
   160  H          0.66520000       0.04170000       0.06420000
   161  C          0.17834700       0.18407000       0.71336000
   162  C          0.17834700       0.81593000       0.21336000
   163  C          0.67834700       0.68407000       0.71336000
   164  C          0.67834700       0.31593000       0.21336000
   165  H          0.16070000       0.11010000       0.71760000
   166  H          0.16070000       0.88990000       0.21760000
   167  H          0.66070000       0.61010000       0.71760000
   168  H          0.66070000       0.38990000       0.21760000
   169  C          0.20086600       0.08556000       0.79807000
   170  C          0.20086600       0.91444000       0.29807000
   171  C          0.70086600       0.58556000       0.79807000
   172  C          0.70086600       0.41444000       0.29807000
   173  H          0.19890000       0.94480000       0.86040000
   174  H          0.19890000       0.05520000       0.36040000
   175  H          0.69890000       0.44480000       0.86040000
   176  H          0.69890000       0.55520000       0.36040000
   177  C          0.22670600       0.19816000       0.78997000
   178  C          0.22670600       0.80184000       0.28997000
   179  C          0.72670600       0.69816000       0.78997000
   180  C          0.72670600       0.30184000       0.28997000
   181  C          0.25395600       0.14546000       0.85917000
   182  C          0.25395600       0.85454000       0.35917000
   183  C          0.75395600       0.64546000       0.85917000
   184  C          0.75395600       0.35454000       0.35917000
   185  C          0.27114700       0.31446000       0.80307000
   186  C          0.27114700       0.68554000       0.30307000
   187  C          0.77114700       0.81446000       0.80307000
   188  C          0.77114700       0.18554000       0.30307000
   189  H          0.29050000       0.32050000       0.82770000
   190  H          0.29050000       0.67950000       0.32770000
   191  H          0.79050000       0.82050000       0.82770000
   192  H          0.79050000       0.17950000       0.32770000
   193  C          0.26151600       0.94384000       0.97137000
   194  C          0.26151600       0.05616000       0.47137000
   195  C          0.76151600       0.44384000       0.97137000
   196  C          0.76151600       0.55616000       0.47137000
   197  H          0.26070000       0.76320000       0.93110000
   198  H          0.26070000       0.23680000       0.43110000
   199  H          0.76070000       0.26320000       0.93110000
   200  H          0.76070000       0.73680000       0.43110000
   201  H          0.24810000       0.95260000       0.03740000
   202  H          0.24810000       0.04740000       0.53740000
   203  H          0.74810000       0.45260000       0.03740000
   204  H          0.74810000       0.54740000       0.53740000
   205  C          0.29013600      -0.00496000       0.04633000
   206  C          0.29013600       0.00496000       0.54633000
   207  C          0.79013600       0.49504000       0.04633000
   208  C          0.79013600       0.50496000       0.54633000
   209  C          0.35351600       0.66685000       0.09333000
   210  C          0.35351600       0.33315000       0.59333000
   211  C          0.85351600       0.16685000       0.09333000
   212  C          0.85351600       0.83315000       0.59333000
   213  C          0.35021600       0.46324000       0.98127000
   214  C          0.35021600       0.53676000       0.48127000
   215  C          0.85021600       0.96324000       0.98127000
   216  C          0.85021600       0.03676000       0.48127000
   217  H          0.33400000       0.50610000       0.91490000
   218  H          0.33400000       0.49390000       0.41490000
   219  H          0.83400000       0.00610000       0.91490000
   220  H          0.83400000      -0.00610000       0.41490000
   221  H          0.34790000       0.28720000       0.02070000
   222  H          0.34790000       0.71280000       0.52070000
   223  H          0.84790000       0.78720000       0.02070000
   224  H          0.84790000       0.21280000       0.52070000
   225  H          0.36660000       0.46330000       0.93490000
   226  H          0.36660000       0.53670000       0.43490000
   227  H          0.86660000       0.96330000       0.93490000
   228  H          0.86660000       0.03670000       0.43490000
   229  C          0.38022600       0.70394000       0.17883000
   230  C          0.38022600       0.29606000       0.67883000
   231  C          0.88022600       0.20394000       0.17883000
   232  C          0.88022600       0.79606000       0.67883000
   233  C          0.38470600       0.90724000       0.27943000
   234  C          0.38470600       0.09276000       0.77943000
   235  C          0.88470600       0.40724000       0.27943000
   236  C          0.88470600       0.59276000       0.77943000
   237  C          0.41000700       0.93174000       0.36253000
   238  C          0.41000700       0.06826000       0.86253000
   239  C          0.91000700       0.43174000       0.36253000
   240  C          0.91000700       0.56826000       0.86253000
   241  H          0.41290000       0.07040000       0.42860000
   242  H          0.41290000       0.92960000       0.92860000
   243  H          0.91290000       0.57040000       0.42860000
   244  H          0.91290000       0.42960000       0.92860000
   245  C          0.43099600       0.75244000       0.34844000
   246  C          0.43099600       0.24756000       0.84844000
   247  C          0.93099600       0.25244000       0.34844000
   248  C          0.93099600       0.74756000       0.84844000
   249  C          0.42697600       0.54934000       0.25063000
   250  C          0.42697600       0.45066000       0.75063000
   251  C          0.92697600       0.04934000       0.25063000
   252  C          0.92697600       0.95066000       0.75063000
   253  H          0.44130000       0.42710000       0.24130000
   254  H          0.44130000       0.57290000       0.74130000
   255  H          0.94130000       0.92710000       0.24130000
   256  H          0.94130000       0.07290000       0.74130000
   257  C          0.40207600       0.52804000       0.16793000
   258  C          0.40207600       0.47196000       0.66793000
   259  C          0.90207600       0.02804000       0.16793000
   260  C          0.90207600       0.97196000       0.66793000
   261  H          0.39950000       0.39030000       0.10120000
   262  H          0.39950000       0.60970000       0.60120000
   263  H          0.89950000       0.89030000       0.10120000
   264  H          0.89950000       0.10970000       0.60120000
