data_TICROO
_symmetry_space_group_name_H-M    'P1'
_symmetry_Int_Tables_number       1
loop_
_symmetry_equiv_pos_site_id
_symmetry_equiv_pos_as_xyz
1 x,y,z
_cell_length_a                   5.7343
_cell_length_b                   8.0574
_cell_length_c                   18.1631
_cell_angle_alpha                78.4387
_cell_angle_beta                 81.6468
_cell_angle_gamma                77.0117
loop_
_atom_site_label
_atom_site_type_symbol
_atom_site_fract_x
_atom_site_fract_y
_atom_site_fract_z
     1  S          0.25816900       0.51481700       0.31767300
     2  S          0.74183100       0.48518300       0.68232700
     3  O          0.04943000       0.64387190       0.29730800
     4  O          0.95057000       0.35612810       0.70269200
     5  O          0.48923000       0.55862000       0.29870900
     6  O          0.51077000       0.44138000       0.70129100
     7  N          0.23244000       0.92537000       0.17494120
     8  N          0.76756000       0.07463000       0.82505880
     9  H          0.36750000       0.88770000       0.15021600
    10  H          0.63250000       0.11230000       0.84978400
    11  H          0.13750000       0.86660000       0.19161700
    12  H          0.86250000       0.13340000       0.80838300
    13  N          0.19923000       0.46453000       0.40970100
    14  N          0.80077000       0.53547000       0.59029900
    15  H          0.06250000       0.51030000       0.42641500
    16  H          0.93750000       0.48970000       0.57358500
    17  N          0.25963000       0.34292000       0.53218900
    18  N          0.74037000       0.65708000       0.46781100
    19  N          0.55693000       0.26693000       0.43145110
    20  N          0.44307000       0.73307000       0.56854890
    21  C          0.24604000       0.05263000       0.21226120
    22  C          0.75396000       0.94737000       0.78773880
    23  C          0.05524000       0.11503000       0.26405120
    24  C          0.94476000       0.88497000       0.73594880
    25  H          0.92330000       0.06160000       0.27610000
    26  H          0.07670000       0.93840000       0.72390000
    27  C          0.05954000       0.25303000       0.29712120
    28  C          0.94046000       0.74697000       0.70287880
    29  H          0.92900000       0.29510000       0.32980000
    30  H          0.07100000       0.70490000       0.67020000
    31  C          0.25963000       0.32973000       0.28154110
    32  C          0.74037000       0.67027000       0.71845890
    33  C          0.45384000       0.26793000       0.23185120
    34  C          0.54616000       0.73207000       0.76814880
    35  H          0.58840000       0.31840000       0.22200000
    36  H          0.41160000       0.68160000       0.77800000
    37  C          0.44654000       0.13243000       0.19749130
    38  C          0.55346000       0.86757000       0.80250870
    39  H          0.57600000       0.09270000       0.16390000
    40  H          0.42400000       0.90730000       0.83610000
    41  C          0.34853000       0.35243000       0.45927110
    42  C          0.65147000       0.64757000       0.54072890
    43  C          0.40134000       0.23733000       0.58155130
    44  C          0.59866000       0.76267000       0.41844870
    45  H          0.34790000       0.22630000       0.63280000
    46  H          0.65210000       0.77370000       0.36720000
    47  C          0.62334000       0.14444000       0.55922140
    48  C          0.37666000       0.85556000       0.44077860
    49  H          0.72200000       0.07240000       0.59400000
    50  H          0.27800000       0.92760000       0.40600000
    51  C          0.69174000       0.16334000       0.48301150
    52  C          0.30826000       0.83666000       0.51698850
    53  H          0.84010000       0.10040000       0.46630000
    54  H          0.15990000       0.89960000       0.53370000
    55  N          0.70443000       0.79867000       0.08224110
    56  N          0.29557000       0.20133000       0.91775890
    57  C          0.83324000       0.67066000       0.12729140
    58  C          0.16676000       0.32934000       0.87270860
    59  H          0.76650000       0.63940000       0.17660000
    60  H          0.23350000       0.36060000       0.82340000
    61  C          0.05785000       0.58237000       0.10545140
    62  C          0.94215000       0.41763000       0.89454860
    63  H          0.13810000       0.49280000       0.13930000
    64  H          0.86190000       0.50720000       0.86070000
    65  C          0.16524000       0.62677000       0.03285130
    66  C          0.83476000       0.37323000       0.96714870
    67  C          0.03164000       0.75937000       0.98544860
    68  C          0.96836000       0.24063000       0.01455140
    69  H          0.09420000       0.79410000       0.93600000
    70  H          0.90580000       0.20590000       0.06400000
    71  C          0.80684000       0.83887000       0.01202150
    72  C          0.19316000       0.16113000       0.98797850
    73  H          0.72010000       0.92650000       0.97900000
    74  H          0.27990000       0.07350000       0.02100000
    75  C          0.40174000       0.53817000       0.00851140
    76  C          0.59826000       0.46183000       0.99148860
