data_TICRII
_symmetry_space_group_name_H-M    'P1'
_symmetry_Int_Tables_number       1
loop_
_symmetry_equiv_pos_site_id
_symmetry_equiv_pos_as_xyz
1 x,y,z
_cell_length_a                   5.761712
_cell_length_b                   7.954817
_cell_length_c                   18.1044
_cell_angle_alpha                98.2924
_cell_angle_beta                 98.8313
_cell_angle_gamma                102.7793
loop_
_atom_site_label
_atom_site_type_symbol
_atom_site_fract_x
_atom_site_fract_y
_atom_site_fract_z
     1  S          0.92760800       0.00964600       0.18337200
     2  S          0.07239200      -0.00964600       0.81662800
     3  O          0.15712000       0.13779180       0.20362700
     4  O          0.84288000       0.86220820       0.79637300
     5  O          0.71792000       0.05770190       0.20368800
     6  O          0.28208000       0.94229810       0.79631200
     7  N          0.07543000       0.41302000       0.32610110
     8  N          0.92457000       0.58698000       0.67389890
     9  H          0.15350000       0.34530000       0.30881500
    10  H          0.84650000       0.65470000       0.69118500
    11  H         -0.02460000       0.37130000       0.35151400
    12  H          0.02460000       0.62870000       0.64848600
    13  N          0.89583000       0.95832000       0.09059800
    14  N          0.10417000       0.04168000       0.90940200
    15  H          0.01660000       0.00310000       0.07100000
    16  H         -0.01660000      -0.00310000       0.92900000
    17  N          0.70703000       0.84512000       0.96721100
    18  N          0.29297000       0.15488000       0.03278900
    19  N          0.51503000       0.76332000       0.06928900
    20  N          0.48497000       0.23668000       0.93071100
    21  C          0.02833000       0.54052000       0.28769100
    22  C         -0.02833000       0.45948000       0.71230900
    23  C          0.17813000       0.60563000       0.23829110
    24  C          0.82187000       0.39437000       0.76170890
    25  H          0.30070000       0.55240000       0.22770000
    26  H          0.69930000       0.44760000       0.77230000
    27  C          0.14623000       0.74633000       0.20549100
    28  C          0.85377000       0.25367000       0.79450900
    29  H          0.25040000       0.79070000       0.17460000
    30  H          0.74960000       0.20930000       0.82540000
    31  C          0.95693000       0.82212000       0.21874100
    32  C          0.04307000       0.17788000       0.78125900
    33  C          0.80033000       0.75573000       0.26502100
    34  C          0.19967000       0.24427000       0.73497900
    35  H          0.67190000       0.80500000       0.27290000
    36  H          0.32810000       0.19500000       0.72710000
    37  C          0.83583000       0.61743000       0.29897110
    38  C          0.16417000       0.38257000       0.70102890
    39  H          0.73100000       0.57390000       0.32990000
    40  H          0.26900000       0.42610000       0.67010000
    41  C          0.69503000       0.85082000       0.04098100
    42  C          0.30497000       0.14918000       0.95901900
    43  C          0.51514000       0.74313000       0.91747890
    44  C          0.48486000       0.25687000       0.08252110
    45  H          0.51560000       0.73550000       0.86580000
    46  H          0.48440000       0.26450000       0.13420000
    47  C          0.31544000       0.64843000       0.94013870
    48  C          0.68456000       0.35157000       0.05986130
    49  H          0.18130000       0.57840000       0.90520000
    50  H          0.81870000       0.42160000       0.09480000
    51  C          0.32654000       0.66363000       0.01722130
    52  C          0.67346000       0.33637000       0.98277870
    53  H          0.19520000       0.60090000       0.03420000
    54  H          0.80480000       0.39910000       0.96580000
    55  N          0.69103000       0.28592000       0.41516100
    56  N          0.30897000       0.71408000       0.58483900
    57  C          0.50304000       0.15923000       0.37498120
    58  C          0.49696000       0.84077000       0.62501880
    59  H          0.50350000       0.12110000       0.32400000
    60  H          0.49650000       0.87890000       0.67600000
    61  C          0.30794000       0.08113000       0.40452110
    62  C          0.69206000       0.91887000       0.59547890
    63  H          0.18270000      -0.00730000       0.37370000
    64  H          0.81730000       0.00730000       0.62630000
    65  C          0.29913000       0.13482000       0.48033110
    66  C          0.70087000       0.86518000       0.51966890
    67  C          0.49574000       0.26583000       0.52248120
    68  C          0.50426000       0.73417000       0.47751880
    69  H          0.50070000       0.30590000       0.57370000
    70  H          0.49930000       0.69410000       0.42630000
    71  C          0.68304000       0.33633000       0.48833130
    72  C          0.31696000       0.66367000       0.51166870
    73  H          0.81160000       0.42410000       0.51790000
    74  H          0.18840000       0.57590000       0.48210000
    75  C          0.10013000       0.06023000       0.51676110
    76  C          0.89987000       0.93977000       0.48323890
    77  H          0.11640000       0.10150000       0.56850000
    78  H          0.88360000       0.89850000       0.43150000
