data_TICSIJ
_symmetry_space_group_name_H-M    'P1'
_symmetry_Int_Tables_number       1
loop_
_symmetry_equiv_pos_site_id
_symmetry_equiv_pos_as_xyz
1 x,y,z
_cell_length_a                   6.55794
_cell_length_b                   8.21375
_cell_length_c                   10.27825
_cell_angle_alpha                74.644113
_cell_angle_beta                 85.993712
_cell_angle_gamma                86.122912
loop_
_atom_site_label
_atom_site_type_symbol
_atom_site_fract_x
_atom_site_fract_y
_atom_site_fract_z
     1  Br         0.64125400       0.75485400       0.17467300
     2  Br         0.35874600       0.24514600       0.82532700
     3  C          0.41623000       0.66334000       0.11763000
     4  C          0.58377000       0.33666000       0.88237000
     5  C          0.38883000       0.49224000       0.15763000
     6  C          0.61117000       0.50776000       0.84237000
     7  C          0.22363000       0.42714000       0.11233000
     8  C          0.77637000       0.57286000       0.88767000
     9  C          0.08633000       0.53513000       0.02352000
    10  C          0.91367000       0.46487000       0.97648000
    11  C          0.12093000       0.70763000       0.98437000
    12  C          0.87907000       0.29237000       0.01563000
    13  C          0.28473000       0.77314000       0.03053000
    14  C          0.71527000       0.22686000       0.96947000
    15  C          0.20013000       0.24334000       0.15623000
    16  C          0.79987000       0.75666000       0.84377000
    17  C         -0.01713000       0.82964000       0.89077000
    18  C          0.01713000       0.17036000       0.10923000
    19  O          0.32133000       0.14613000       0.22563000
    20  O          0.67867000       0.85387000       0.77437000
    21  O          0.00913000       0.97923000       0.85228000
    22  O         -0.00913000       0.02077000       0.14772000
    23  H          0.48140000       0.41830000       0.21570000
    24  H          0.51860000       0.58170000       0.78430000
    25  H          0.30570000       0.89080000       0.00220000
    26  H          0.69430000       0.10920000      -0.00220000
    27  C          0.92394000       0.36075000       0.41293000
    28  C          0.07606000       0.63925000       0.58707000
    29  C          0.77145000       0.31346000       0.53644000
    30  C          0.22855000       0.68654000       0.46356000
    31  C          0.63314000       0.19075000       0.50213000
    32  C          0.36686000       0.80925000       0.49787000
    33  C          0.75064000       0.14064000       0.38423000
    34  C          0.24936000       0.85936000       0.61577000
    35  O          0.85013000       0.29203000       0.31242000
    36  O          0.14987000       0.70797000       0.68758000
    37  H          0.05720000       0.31380000       0.43580000
    38  H          0.94280000       0.68620000       0.56420000
    39  H          0.92800000       0.48000000       0.38020000
    40  H          0.07200000       0.52000000       0.61980000
    41  H          0.84180000       0.26070000       0.61560000
    42  H          0.15820000       0.73930000       0.38440000
    43  H          0.69440000       0.41070000       0.54900000
    44  H          0.30560000       0.58930000       0.45100000
    45  H          0.61380000       0.09520000       0.57690000
    46  H          0.38620000       0.90480000       0.42310000
    47  H          0.50400000       0.24460000       0.47630000
    48  H          0.49600000       0.75540000       0.52370000
    49  H          0.84780000       0.04970000       0.41510000
    50  H          0.15220000       0.95030000       0.58490000
    51  H          0.65890000       0.10920000       0.32850000
    52  H          0.34110000       0.89080000       0.67150000
