data_TICYIP03
_symmetry_space_group_name_H-M    'P1'
_symmetry_Int_Tables_number       1
loop_
_symmetry_equiv_pos_site_id
_symmetry_equiv_pos_as_xyz
1 x,y,z
_cell_length_a                   7.536713
_cell_length_b                   10.017318
_cell_length_c                   19.4294
_cell_angle_alpha                90.0
_cell_angle_beta                 92.8818
_cell_angle_gamma                90.0
loop_
_atom_site_label
_atom_site_type_symbol
_atom_site_fract_x
_atom_site_fract_y
_atom_site_fract_z
     1  O          0.95989890      -0.00111200       0.61462400
     2  O          0.54010110       0.49888800       0.88537600
     3  O          0.04010110       0.00111200       0.38537600
     4  O          0.45989890       0.50111200       0.11462400
     5  H          0.03830000       0.89630000       0.59981300
     6  H          0.46170000       0.39630000       0.90018700
     7  H          0.96170000       0.10370000       0.40018700
     8  H          0.53830000       0.60370000       0.09981300
     9  O          0.19358110       0.05455800       0.68440400
    10  O          0.30641890       0.55455800       0.81559600
    11  O          0.80641890       0.94544200       0.31559600
    12  O          0.69358110       0.44544200       0.18440400
    13  N          0.18736140       0.30798100       0.73559600
    14  N          0.31263860       0.80798100       0.76440400
    15  N          0.81263860       0.69201900       0.26440400
    16  N          0.68736140       0.19201900       0.23559600
    17  H          0.25120000       0.23011800       0.73279000
    18  H          0.24880000       0.73011800       0.76721000
    19  H          0.74880000       0.76988200       0.26721000
    20  H          0.75120000       0.26988200       0.23279000
    21  H          0.22420000       0.37241800       0.76539000
    22  H          0.27580000       0.87241800       0.73461000
    23  H          0.77580000       0.62758200       0.23461000
    24  H          0.72420000       0.12758200       0.26539000
    25  C          0.04108140       0.07487100       0.66017500
    26  C          0.45891860       0.57487100       0.83982500
    27  C          0.95891860       0.92512900       0.33982500
    28  C          0.54108140       0.42512900       0.16017500
    29  C          0.93204860       0.19075100       0.68210500
    30  C          0.56795140       0.69075100       0.81789500
    31  C          0.06795140       0.80924900       0.31789500
    32  C          0.43204860       0.30924900       0.18210500
    33  C          0.00889140       0.29971100       0.71943500
    34  C          0.49110860       0.79971100       0.78056500
    35  C         -0.00889140       0.70028900       0.28056500
    36  C          0.50889140       0.20028900       0.21943500
    37  C          0.89711840       0.40593110       0.73728600
    38  C          0.60288160       0.90593110       0.76271400
    39  C          0.10288160       0.59406890       0.26271400
    40  C          0.39711840       0.09406890       0.23728600
    41  H          0.94980000       0.48131600       0.76248000
    42  H          0.55020000       0.98131600       0.73752000
    43  H          0.05020000       0.51868400       0.23752000
    44  H          0.44980000       0.01868400       0.26248000
    45  C          0.71707830       0.40240120       0.72094600
    46  C          0.78292170       0.90240120       0.77905400
    47  C          0.28292170       0.59759880       0.27905400
    48  C          0.21707830       0.09759880       0.22094600
    49  H          0.64180000       0.47751700       0.73428000
    50  H          0.85820000       0.97751700       0.76572000
    51  H          0.35820000       0.52248300       0.26572000
    52  H          0.14180000       0.02248300       0.23428000
    53  C          0.64014840       0.29382130       0.68577600
    54  C          0.85985160       0.79382130       0.81422400
    55  C          0.35985160       0.70617870       0.31422400
    56  C          0.14014840       0.20617870       0.18577600
    57  H          0.51580000       0.29291600       0.67398000
    58  H         -0.01580000       0.79291600       0.82602000
    59  H          0.48420000       0.70708400       0.32602000
    60  H          0.01580000       0.20708400       0.17398000
    61  C          0.74843850       0.19027110       0.66638600
    62  C          0.75156150       0.69027110       0.83361400
    63  C          0.25156150       0.80972890       0.33361400
    64  C          0.24843850       0.30972890       0.16638600
    65  H          0.69498200       0.11511400       0.64047000
    66  H          0.80501800       0.61511400       0.85953000
    67  H          0.30501800       0.88488600       0.35953000
    68  H          0.19498200       0.38488600       0.14047000
    69  N          0.09922130       0.78210900       0.57790500
    70  N          0.40077870       0.28210900       0.92209500
    71  N          0.90077870       0.21789100       0.42209500
    72  N          0.59922130       0.71789100       0.07790500
    73  C          0.15447160       0.76816110       0.51399600
    74  C          0.34552840       0.26816110       0.98600400
    75  C          0.84552840       0.23183890       0.48600400
    76  C          0.65447160       0.73183890       0.01399600
    77  H          0.14920000       0.84651700       0.48508000
    78  H          0.35080000       0.34651700       0.01492000
    79  H          0.85080000       0.15348300       0.51492000
    80  H          0.64920000       0.65348300       0.98508000
    81  C          0.21242160       0.64743110       0.48914600
    82  C          0.28757840       0.14743110       0.01085400
    83  C          0.78757840       0.35256890       0.51085400
    84  C          0.71242160       0.85256890       0.98914600
    85  H          0.24720000       0.64601800       0.44289000
    86  H          0.25280000       0.14601800       0.05711000
    87  H          0.75280000       0.35398200       0.55711000
    88  H          0.74720000       0.85398200       0.94289000
    89  C          0.21666140       0.53436100       0.53085500
    90  C          0.28333860       0.03436100       0.96914500
    91  C          0.78333860       0.46563900       0.46914500
    92  C          0.71666140       0.96563900       0.03085500
    93  C          0.15802000       0.55087120       0.59733600
    94  C          0.34198000       0.05087120       0.90266400
    95  C          0.84198000       0.44912880       0.40266400
    96  C          0.65802000       0.94912880       0.09733600
    97  H          0.16130000       0.47920000       0.63151000
    98  H          0.33870000       0.97920000       0.86849000
    99  H          0.83870000       0.52080000       0.36849000
   100  H          0.66130000       0.02080000       0.13151000
   101  C          0.09922000       0.67438120       0.61827600
   102  C          0.40078000       0.17438120       0.88172400
   103  C          0.90078000       0.32561880       0.38172400
   104  C          0.59922000       0.82561880       0.11827600
   105  H          0.05620000       0.68691800       0.66449000
   106  H          0.44380000       0.18691800       0.83551000
   107  H          0.94380000       0.31308200       0.33551000
   108  H          0.55620000       0.81308200       0.16449000
   109  C          0.27652140       0.40285100       0.50541600
   110  C          0.22347860       0.90285100      -0.00541600
   111  C          0.72347860       0.59714900       0.49458400
   112  C          0.77652140       0.09714900       0.00541600
   113  C          0.33562000       0.38848130       0.43894700
   114  C          0.16438000       0.88848130       0.06105300
   115  C          0.66438000       0.61151870       0.56105300
   116  C          0.83562000       0.11151870       0.93894700
   117  H          0.34220000       0.46361900       0.40811000
   118  H          0.15780000       0.96361900       0.09189000
   119  H          0.65780000       0.53638100       0.59189000
   120  H          0.84220000       0.03638100       0.90811000
   121  C          0.38762000       0.26438140       0.41472700
   122  C          0.11238000       0.76438140       0.08527300
   123  C          0.61238000       0.73561860       0.58527300
   124  C          0.88762000       0.23561860       0.91472700
   125  H          0.42820000       0.26120000       0.36921100
   126  H          0.07180000       0.76120000       0.13078900
   127  H          0.57180000       0.73880000       0.63078900
   128  H          0.92820000       0.23880000       0.86921100
   129  C          0.38261160       0.15338120       0.45678800
   130  C          0.11738840       0.65338120       0.04321200
   131  C          0.61738840       0.84661880       0.54321200
   132  C          0.88261160       0.34661880       0.95678800
   133  H          0.41920000       0.06681800       0.43739000
   134  H          0.08080000       0.56681800       0.06261000
   135  H          0.58080000       0.93318200       0.56261000
   136  H          0.91920000       0.43318200       0.93739000
   137  C          0.32684170       0.16598120       0.52301800
   138  C          0.17315830       0.66598120       0.97698200
   139  C          0.67315830       0.83401880       0.47698200
   140  C          0.82684170       0.33401880       0.02301800
   141  H          0.32520000       0.09021900       0.55409000
   142  H          0.17480000       0.59021900       0.94591000
   143  H          0.67480000       0.90978100       0.44591000
   144  H          0.82520000       0.40978100       0.05409000
   145  C          0.27393150       0.28974120       0.54728700
   146  C          0.22606850       0.78974120       0.95271300
   147  C          0.72606850       0.71025880       0.45271300
   148  C          0.77393150       0.21025880       0.04728700
   149  H          0.23220000       0.29691600       0.59539000
   150  H          0.26780000       0.79691600       0.90461000
   151  H          0.76780000       0.70308400       0.40461000
   152  H          0.73220000       0.20308400       0.09539000
