data_TICYIP
_symmetry_space_group_name_H-M    'P1'
_symmetry_Int_Tables_number       1
loop_
_symmetry_equiv_pos_site_id
_symmetry_equiv_pos_as_xyz
1 x,y,z
_cell_length_a                   7.56566
_cell_length_b                   10.00449
_cell_length_c                   19.683618
_cell_angle_alpha                90.0
_cell_angle_beta                 92.7554
_cell_angle_gamma                90.0
loop_
_atom_site_label
_atom_site_type_symbol
_atom_site_fract_x
_atom_site_fract_y
_atom_site_fract_z
     1  O          0.96230880       0.50031100       0.11618500
     2  O          0.53769120       0.00031100       0.38381500
     3  O          0.03769120       0.49968900       0.88381500
     4  O          0.46230880      -0.00031100       0.61618500
     5  H          0.03230000       0.59370000       0.10391200
     6  H          0.46770000       0.09370000       0.39608800
     7  H          0.96770000       0.40630000       0.89608800
     8  H          0.53230000       0.90630000       0.60391200
     9  O          0.19459120       0.44339100       0.18387500
    10  O          0.30540880       0.94339100       0.31612500
    11  O          0.80540880       0.55660900       0.81612500
    12  O          0.69459120       0.05660900       0.68387500
    13  N          0.18724160       0.19103870       0.23545700
    14  N          0.31275840       0.69103870       0.26454300
    15  N          0.81275840       0.80896130       0.76454300
    16  N          0.68724160       0.30896130       0.73545700
    17  H          0.22420000       0.12718100       0.26369000
    18  H          0.27580000       0.62718100       0.23631000
    19  H          0.77580000       0.87281900       0.73631000
    20  H          0.72420000       0.37281900       0.76369000
    21  H          0.25020000       0.27180000       0.23219000
    22  H          0.24980000       0.77180000       0.26781000
    23  H          0.74980000       0.72820000       0.76781000
    24  H          0.75020000       0.22820000       0.73219000
    25  C          0.93451860       0.30784900       0.18207500
    26  C          0.56548140       0.80784900       0.31792500
    27  C          0.06548140       0.69215100       0.81792500
    28  C          0.43451860       0.19215100       0.68207500
    29  C          0.01026160       0.19940890       0.21931600
    30  C          0.48973840       0.69940890       0.28068400
    31  C         -0.01026160       0.80059110       0.78068400
    32  C          0.51026160       0.30059110       0.71931600
    33  C          0.89860810       0.09365870       0.23724700
    34  C          0.60139190       0.59365870       0.26275300
    35  C          0.10139190       0.90634130       0.76275300
    36  C          0.39860810       0.40634130       0.73724700
    37  H          0.95380000       0.01838100       0.26309000
    38  H          0.54620000       0.51838100       0.23691000
    39  H          0.04620000       0.98161900       0.73691000
    40  H          0.45380000       0.48161900       0.76309000
    41  C          0.72088000       0.09695850       0.22083700
    42  C          0.77912000       0.59695850       0.27916300
    43  C          0.27912000       0.90304150       0.77916300
    44  C          0.22088000       0.40304150       0.72083700
    45  H          0.64470000       0.02180000       0.23451000
    46  H          0.85530000       0.52180000       0.26549000
    47  H          0.35530000       0.97820000       0.76549000
    48  H          0.14470000       0.47820000       0.73451000
    49  C          0.64470820       0.20459840       0.18552700
    50  C          0.85529180       0.70459840       0.31447300
    51  C          0.35529180       0.79540160       0.81447300
    52  C          0.14470820       0.29540160       0.68552700
    53  H          0.52070000       0.20628200       0.17459000
    54  H          0.97930000       0.70628200       0.32541000
    55  H          0.47930000       0.79371800       0.82541000
    56  H          0.02070000       0.29371800       0.67459000
    57  C          0.75230840       0.30813870       0.16608600
    58  C          0.74769160       0.80813870       0.33391400
    59  C          0.24769160       0.69186130       0.83391400
    60  C          0.25230840       0.19186130       0.66608600
    61  H          0.70038200       0.38098500       0.13937000
    62  H          0.79961800       0.88098500       0.36063000
    63  H          0.29961800       0.61901500       0.86063000
    64  H          0.20038200       0.11901500       0.63937000
    65  C          0.04306150       0.42348900       0.16057600
    66  C          0.45693850       0.92348900       0.33942400
    67  C          0.95693850       0.57651100       0.83942400
    68  C          0.54306150       0.07651100       0.66057600
    69  N          0.10284150       0.71748900       0.07892600
    70  N          0.39715850       0.21748900       0.42107400
    71  N          0.89715850       0.28251100       0.92107400
    72  N          0.60284150       0.78251100       0.57892600
    73  C          0.15562180       0.73106880       0.01576700
    74  C          0.34437820       0.23106880       0.48423300
    75  C          0.84437820       0.26893120       0.98423300
    76  C          0.65562180       0.76893120       0.51576700
    77  H          0.15020000       0.65180000       0.98769000
    78  H          0.34980000       0.15180000       0.51231000
    79  H          0.84980000       0.34820000       0.01231000
    80  H          0.65020000       0.84820000       0.48769000
    81  C          0.21231180       0.85144880       0.99026300
    82  C          0.28768820       0.35144880       0.50973700
    83  C          0.78768820       0.14855120       0.00973700
    84  C          0.71231180       0.64855120       0.49026300
    85  H          0.24420000       0.85280000       0.94309000
    86  H          0.25580000       0.35280000       0.55691000
    87  H          0.75580000       0.14720000       0.05691000
    88  H          0.74420000       0.64720000       0.44309000
    89  C          0.21744150       0.96500890       0.03077600
    90  C          0.28255850       0.46500890       0.46922400
    91  C          0.78255850       0.03499110       0.96922400
    92  C          0.71744150       0.53499110       0.53077600
    93  C          0.16023000       0.94933860       0.09645700
    94  C          0.33977000       0.44933860       0.40354300
    95  C          0.83977000       0.05066140       0.90354300
    96  C          0.66023000       0.55066140       0.59645700
    97  H          0.16530000       0.02120000       0.12991100
    98  H          0.33470000       0.52120000       0.37008900
    99  H          0.83470000       0.97880000       0.87008900
   100  H          0.66530000       0.47880000       0.62991100
   101  C          0.10263000       0.82586850       0.11784700
   102  C          0.39737000       0.32586850       0.38215300
   103  C          0.89737000       0.17413150       0.88215300
   104  C          0.60263000       0.67413150       0.61784700
   105  H          0.06130000       0.81480000       0.16321100
   106  H          0.43870000       0.31480000       0.33678900
   107  H          0.93870000       0.18520000       0.83678900
   108  H          0.56130000       0.68520000       0.66321100
   109  C          0.27606150       0.09632110       0.00493600
   110  C          0.22393850       0.59632110       0.49506400
   111  C          0.72393850       0.90367890      -0.00493600
   112  C          0.77606150       0.40367890       0.50493600
   113  C          0.33183000       0.11003160       0.93892200
   114  C          0.16817000       0.61003160       0.56107800
   115  C          0.66817000       0.88996840       0.06107800
   116  C          0.83183000       0.38996840       0.43892200
   117  H          0.33230000       0.03620000       0.90858900
   118  H          0.16770000       0.53620000       0.59141100
   119  H          0.66770000       0.96380000       0.09141100
   120  H          0.83230000       0.46380000       0.40858900
   121  C          0.38323000       0.23442190       0.91457900
   122  C          0.11677000       0.73442190       0.58542100
   123  C          0.61677000       0.76557810       0.08542100
   124  C          0.88323000       0.26557810       0.41457900
   125  H          0.42530000       0.23130000       0.87078700
   126  H          0.07470000       0.73130000       0.62921300
   127  H          0.57470000       0.76870000       0.12921300
   128  H          0.92530000       0.26870000       0.37078700
   129  C          0.38042000       0.34500150       0.95607900
   130  C          0.11958000       0.84500150       0.54392100
   131  C          0.61958000       0.65499850       0.04392100
   132  C          0.88042000       0.15499850       0.45607900
   133  H          0.42030000       0.43120000       0.93748900
   134  H          0.07970000       0.93120000       0.56251100
   135  H          0.57970000       0.56880000       0.06251100
   136  H          0.92030000       0.06880000       0.43748900
   137  C          0.32842000       0.33289140       0.02160110
   138  C          0.17158000       0.83289140       0.47839890
   139  C          0.67158000       0.66710860       0.97839890
   140  C          0.82842000       0.16710860       0.52160110
   141  H          0.32630000       0.41230000       0.05101100
   142  H          0.17370000       0.91230000       0.44898900
   143  H          0.67370000       0.58770000       0.94898900
   144  H          0.82630000       0.08770000       0.55101100
   145  C          0.27634180       0.20944130       0.04607800
   146  C          0.22365820       0.70944130       0.45392200
   147  C          0.72365820       0.79055870       0.95392200
   148  C          0.77634180       0.29055870       0.54607800
   149  H          0.23530000       0.20151900       0.09441000
   150  H          0.26470000       0.70151900       0.40559000
   151  H          0.76470000       0.79848100       0.90559000
   152  H          0.73530000       0.29848100       0.59441000
