data_TICZOW
_symmetry_space_group_name_H-M    'P1'
_symmetry_Int_Tables_number       1
loop_
_symmetry_equiv_pos_site_id
_symmetry_equiv_pos_as_xyz
1 x,y,z
_cell_length_a                   9.58619
_cell_length_b                   10.11799
_cell_length_c                   14.426211
_cell_angle_alpha                88.6767
_cell_angle_beta                 76.5767
_cell_angle_gamma                64.4479
loop_
_atom_site_label
_atom_site_type_symbol
_atom_site_fract_x
_atom_site_fract_y
_atom_site_fract_z
     1  O          0.11449140       0.58423130       0.25299800
     2  O          0.88550860       0.41576870       0.74700200
     3  O          0.21833140       0.45702130       0.37022800
     4  O          0.78166860       0.54297870       0.62977200
     5  O          0.87874850       0.34121140       0.08560800
     6  O          0.12125150       0.65878860       0.91439200
     7  O          0.78954850       0.19377140       0.15952900
     8  O          0.21045150       0.80622860       0.84047100
     9  O          0.94622860       0.19379140       0.55209800
    10  O          0.05377140       0.80620860       0.44790200
    11  O          0.80402860       0.11814130       0.49089800
    12  O          0.19597140       0.88185870       0.50910200
    13  N          0.85134830       0.27779150       0.15643100
    14  N          0.14865170       0.72220850       0.84356900
    15  N          0.88624840       0.18434150       0.48722100
    16  N          0.11375160       0.81565850       0.51277900
    17  C          0.13033190       0.49041190       0.31201120
    18  C          0.86966810       0.50958810       0.68798880
    19  C          0.03384180       0.40407170       0.31613110
    20  C          0.96615820       0.59592830       0.68386890
    21  C          0.98126810       0.38752180       0.23716120
    22  C          0.01873190       0.61247820       0.76283880
    23  C          0.89912810       0.30313180       0.24222110
    24  C          0.10087190       0.69686820       0.75777890
    25  C          0.86237810       0.23728180       0.32331120
    26  C          0.13762190       0.76271820       0.67668880
    27  C          0.91609810       0.25680180       0.40017110
    28  C          0.08390190       0.74319820       0.59982890
    29  C          0.00137190       0.33788180       0.39858120
    30  C         -0.00137190       0.66211820       0.60141880
    31  H          0.80688200       0.17911800       0.32501000
    32  H          0.19311800       0.82088200       0.67499000
    33  H          0.03991700       0.34711600       0.45271100
    34  H          0.96008300       0.65288400       0.54728900
    35  H          0.00451700       0.43151700       0.18041100
    36  H          0.99548300       0.56848300       0.81958900
    37  O          0.39283140       0.56477130       0.39639800
    38  O          0.60716860       0.43522870       0.60360200
    39  O          0.53947140       0.52896140       0.24450900
    40  O          0.46052860       0.47103860       0.75549100
    41  O          0.84821160       0.81793160       0.16761900
    42  O          0.15178840       0.18206840       0.83238100
    43  O          0.88634140       0.92447130       0.28138800
    44  O          0.11365860       0.07552870       0.71861200
    45  O          0.64931140       0.90292140       0.60870800
    46  O          0.35068860       0.09707860       0.39129200
    47  O          0.47361140       0.81717140       0.64237800
    48  O          0.52638860       0.18282860       0.35762200
    49  N          0.82994170       0.85061160       0.25193100
    50  N          0.17005830       0.14938840       0.74806900
    51  N          0.57764170       0.83833150       0.58617100
    52  N          0.42235830       0.16166850       0.41382900
    53  C          0.50192000       0.57604180       0.32781120
    54  C          0.49808000       0.42395820       0.67218880
    55  C          0.57789190       0.66342180       0.36153120
    56  C          0.42210810       0.33657820       0.63846880
    57  C          0.67002000       0.71181190       0.29338120
    58  C          0.32998000       0.28818810       0.70661880
    59  C          0.73398190       0.79733180       0.32417110
    60  C          0.26601810       0.20266820       0.67582890
    61  C          0.71072000       0.83642180       0.41937120
    62  C          0.28928000       0.16357820       0.58062880
    63  C          0.61629190       0.78831180       0.48460110
    64  C          0.38370810       0.21168820       0.51539890
    65  C          0.55052000       0.70207180       0.45781120
    66  C          0.44948000       0.29792820       0.54218880
    67  H          0.68521800       0.68831700       0.22721100
    68  H          0.31478200       0.31168300       0.77278900
    69  H          0.48431800       0.67411700       0.50431100
    70  H          0.51568200       0.32588300       0.49568900
    71  H          0.75220000       0.89541900       0.43851100
    72  H          0.24780000       0.10458100       0.56148900
    73  H          0.31930000       0.52530000       0.37561700
    74  H          0.68070000       0.47470000       0.62438300
    75  N          0.22108170       0.77608170       0.17630110
    76  N          0.77891830       0.22391830       0.82369890
    77  C          0.22392000       0.81322000       0.08663130
    78  C          0.77608000       0.18678000       0.91336870
    79  C          0.25772000       0.92793190       0.05644130
    80  C          0.74228000       0.07206810       0.94355870
    81  C          0.29081190       0.00742180       0.11931110
    82  C          0.70918810      -0.00742180       0.88068890
    83  C          0.28372000       0.96592000       0.21275130
    84  C          0.71628000       0.03408000       0.78724870
    85  C          0.24822000       0.85132000       0.23961130
    86  C          0.75178000       0.14868000       0.76038870
    87  C          0.32535190       0.13380180       0.09107110
    88  C          0.67464810       0.86619820       0.90892890
    89  C          0.27212000       0.21232000       0.01563130
    90  C          0.72788000       0.78768000       0.98436870
    91  C          0.29523000       0.33612000      -0.00701140
    92  C          0.70477000       0.66388000       0.00701140
    93  C          0.37112000       0.38372000       0.04513150
    94  C          0.62888000       0.61628000       0.95486850
    95  C          0.42642000       0.30652000       0.11933140
    96  C          0.57358000       0.69348000       0.88066860
    97  C          0.40382000       0.18242000       0.14254130
    98  C          0.59618000       0.81758000       0.85745870
    99  H          0.26620000       0.94751900      -0.00921300
   100  H          0.73380000       0.05248100       0.00921300
   101  H          0.20481900       0.75621900       0.04321100
   102  H          0.79518100       0.24378100       0.95678900
   103  H          0.23920000       0.82191900       0.30411200
   104  H          0.76080000       0.17808100       0.69588800
   105  H          0.44320000       0.13120000       0.19521200
   106  H          0.55680000       0.86880000       0.80478800
   107  H          0.30120000       0.01820000       0.25671200
   108  H          0.69880000       0.98180000       0.74328800
   109  H          0.48120000       0.33620000       0.15821300
   110  H          0.51880000       0.66380000       0.84178700
   111  H          0.21411900       0.18661800       0.98088900
   112  H          0.78588100       0.81338200       0.01911100
   113  H          0.19520000       0.70020000       0.20121300
   114  H          0.80480000       0.29980000       0.79878700
   115  H          0.25020000       0.39020000       0.94008700
   116  H          0.74980000       0.60980000       0.05991300
   117  H          0.38120000       0.47620000       0.03271300
   118  H          0.61880000       0.52380000       0.96728700
