data_TICZUC
_symmetry_space_group_name_H-M    'P1'
_symmetry_Int_Tables_number       1
loop_
_symmetry_equiv_pos_site_id
_symmetry_equiv_pos_as_xyz
1 x,y,z
_cell_length_a                   8.18392
_cell_length_b                   10.88003
_cell_length_c                   19.21685
_cell_angle_alpha                73.58901
_cell_angle_beta                 83.55801
_cell_angle_gamma                68.89701
loop_
_atom_site_label
_atom_site_type_symbol
_atom_site_fract_x
_atom_site_fract_y
_atom_site_fract_z
     1  N          0.96460170       0.61971150       0.29317800
     2  N          0.03539830       0.38028850       0.70682200
     3  O          0.19633130       0.61808120       0.40313600
     4  O          0.80366870       0.38191880       0.59686400
     5  O          0.25793140       0.72483120       0.47460600
     6  O          0.74206860       0.27516880       0.52539400
     7  C          0.47865170       0.63787140       0.39404700
     8  C          0.52134830       0.36212860       0.60595300
     9  C          0.53215180       0.58364140       0.33453700
    10  C          0.46784820       0.41635860       0.66546300
    11  H          0.45610000       0.55200000       0.31610000
    12  H          0.54390000       0.44800000       0.68390000
    13  C          0.69261190       0.57475150       0.30169800
    14  C          0.30738810       0.42524850       0.69830200
    15  H          0.72520000       0.53850000       0.26060000
    16  H          0.27480000       0.46150000       0.73940000
    17  C          0.80845170       0.61869140       0.32819800
    18  C          0.19154830       0.38130860       0.67180200
    19  C          0.75861180       0.66691150       0.39039800
    20  C          0.24138820       0.33308850       0.60960200
    21  H          0.83750000       0.69280000       0.41090000
    22  H          0.16250000       0.30720000       0.58910000
    23  C          0.59663170       0.67711140       0.42208800
    24  C          0.40336830       0.32288860       0.57791200
    25  H          0.56450000       0.71150000       0.46380000
    26  H          0.43550000       0.28850000       0.53620000
    27  C          0.29898180       0.65781150       0.42387800
    28  C          0.70101820       0.34218850       0.57612200
    29  H          0.00620000       0.57220000       0.25981100
    30  H         -0.00620000       0.42780000       0.74018900
    31  H          0.04220000       0.62571800       0.31891000
    32  H          0.95780000       0.37428200       0.68109000
    33  H          0.14030000       0.73520000       0.48921300
    34  H          0.85970000       0.26480000       0.51078700
    35  N          0.46308170       0.38828160       0.21080800
    36  N          0.53691830       0.61171840       0.78919200
    37  O          0.68377870       0.52228110       0.11056600
    38  O          0.31622130       0.47771890       0.88943400
    39  O          0.75622860       0.69358120       0.03645600
    40  O          0.24377140       0.30641880       0.96354400
    41  C          0.96972830       0.52624140       0.11770700
    42  C          0.03027170       0.47375860       0.88229300
    43  C          0.02077180       0.40946140       0.17512700
    44  C          0.97922820       0.59053860       0.82487300
    45  H          0.94140000       0.36190000       0.19380000
    46  H          0.05860000       0.63810000       0.80620000
    47  C          0.18434180       0.36123140       0.20560700
    48  C          0.81565820       0.63876860       0.79439300
    49  H          0.21620000       0.28120000       0.24480000
    50  H          0.78380000       0.71880000       0.75520000
    51  C          0.30346170       0.42964140       0.17906700
    52  C          0.69653830       0.57035860       0.82093300
    53  C          0.25411170       0.54515140       0.12043800
    54  C          0.74588830       0.45484860       0.87956200
    55  H          0.33400000       0.59190000       0.10110000
    56  H          0.66600000       0.40810000       0.89890000
    57  C          0.09069170       0.59214140       0.09034800
    58  C          0.90930830       0.40785860       0.90965200
    59  H          0.05980000       0.67070000       0.05030000
    60  H          0.94020000       0.32930000       0.94970000
    61  C          0.79082820       0.57920150       0.08824800
    62  C          0.20917180       0.42079850       0.91175200
    63  H          0.49920000       0.30820000       0.24041100
    64  H          0.50080000       0.69180000       0.75958900
    65  H          0.54420000       0.42321800       0.18591000
    66  H          0.45580000       0.57678200       0.81409000
    67  H          0.63370000       0.72320000       0.01801200
    68  H          0.36630000       0.27680000       0.98198800
    69  N          0.92942150       0.78222140       0.52639700
    70  N          0.07057850       0.21777860       0.47360300
    71  C          0.86588190       0.68344160       0.56017800
    72  C          0.13411810       0.31655840       0.43982200
    73  H          0.93500000       0.59210000       0.56020000
    74  H          0.06500000       0.40790000       0.43980000
    75  C          0.70505190       0.70686150       0.59510800
    76  C          0.29494810       0.29313850       0.40489200
    77  H          0.66550000       0.63290000       0.61810000
    78  H          0.33450000       0.36710000       0.38190000
    79  C          0.60108180       0.83933140       0.59652700
    80  C          0.39891820       0.16066860       0.40347300
    81  C          0.42586180       0.86991150       0.63234700
    82  C          0.57413820       0.13008850       0.36765300
    83  C          0.31806190       0.79680160       0.63042800
    84  C          0.68193810       0.20319840       0.36957200
    85  H          0.35760000       0.72570000       0.60650000
    86  H          0.64240000       0.27430000       0.39350000
    87  C          0.15372000       0.82689180       0.66314800
    88  C          0.84628000       0.17310820       0.33685200
    89  H          0.08130000       0.77630000       0.66160000
    90  H          0.91870000       0.22370000       0.33840000
    91  C          0.09482000       0.93042000       0.69802100
    92  C          0.90518000       0.06958000       0.30197900
    93  H          0.98180000       0.95140000       0.72010000
    94  H          0.01820000       0.04860000       0.27990000
    95  C          0.20062000       0.00302000       0.70063110
    96  C          0.79938000      -0.00302000       0.29936890
    97  H          0.16060000       0.07360000       0.72490000
    98  H          0.83940000       0.92640000       0.27510000
    99  C          0.36482000       0.97345170       0.66801900
   100  C          0.63518000       0.02654830       0.33198100
   101  H          0.43660000       0.02430000       0.67000000
   102  H          0.56340000       0.97570000       0.33000000
   103  C          0.66841190       0.94204160       0.56168800
   104  C          0.33158810       0.05795840       0.43831200
   105  H          0.60370000       0.03420000       0.56160000
   106  H          0.39630000       0.96580000       0.43840000
   107  C          0.82882190       0.90960170       0.52739900
   108  C          0.17117810       0.09039830       0.47260100
   109  H          0.87070000       0.98170000       0.50300000
   110  H          0.12930000       0.01830000       0.49700000
   111  N          0.56105150       0.20481140       0.01796700
   112  N          0.43894850       0.79518860       0.98203300
   113  C          0.66253190       0.07657180       0.01994900
   114  C          0.33746810       0.92342820       0.98005100
   115  H          0.62350000       0.02700000      -0.00400000
   116  H          0.37650000       0.97300000       0.00400000
   117  C          0.82071180       0.01233160       0.05487800
   118  C          0.17928820       0.98766840       0.94512200
   119  H          0.88640000       0.92000000       0.05580000
   120  H          0.11360000       0.08000000       0.94420000
   121  C          0.12312000       0.88065830       0.15710900
   122  C          0.87688000       0.11934170       0.84289100
   123  H          0.05490000       0.82570000       0.15790000
   124  H          0.94510000       0.17430000       0.84210000
   125  C          0.28653000       0.82164810       0.18867120
   126  C          0.71347000       0.17835190       0.81132880
   127  H          0.33030000       0.72630000       0.21070000
   128  H          0.66970000       0.27370000       0.78930000
   129  C          0.38632000       0.90014810       0.18844110
   130  C          0.61368000       0.09985190       0.81155890
   131  H          0.49810000       0.85910000       0.21050000
   132  H          0.50190000       0.14090000       0.78950000
   133  C          0.32382000       0.03824180       0.15616900
   134  C          0.67618000       0.96175820       0.84383100
   135  H          0.39230000       0.09260000       0.15610000
   136  H          0.60770000       0.90740000       0.84390000
   137  C          0.16081190       0.09808160       0.12370800
   138  C          0.83918810       0.90191840       0.87629200
   139  H          0.11900000       0.19320000       0.10100000
   140  H          0.88100000       0.80680000       0.89900000
   141  C          0.77832190       0.21673150       0.08656800
   142  C          0.22167810       0.78326850       0.91343200
   143  H          0.81490000       0.26950000       0.10920000
   144  H          0.18510000       0.73050000       0.89080000
   145  C          0.62020190       0.27234160       0.05139800
   146  C          0.37979810       0.72765840       0.94860200
   147  H          0.54960000       0.36360000       0.05090000
   148  H          0.45040000       0.63640000       0.94910000
   149  C          0.88416170       0.08299140       0.08885700
   150  C          0.11583830       0.91700860       0.91114300
   151  C          0.05798180       0.02004150       0.12416800
   152  C          0.94201820       0.97995850       0.87583200
