data_TIHGAT
_symmetry_space_group_name_H-M    'P1'
_symmetry_Int_Tables_number       1
loop_
_symmetry_equiv_pos_site_id
_symmetry_equiv_pos_as_xyz
1 x,y,z
_cell_length_a                   8.282813
_cell_length_b                   8.370213
_cell_length_c                   8.761314
_cell_angle_alpha                91.3262
_cell_angle_beta                 117.0992
_cell_angle_gamma                97.3372
loop_
_atom_site_label
_atom_site_type_symbol
_atom_site_fract_x
_atom_site_fract_y
_atom_site_fract_z
     1  C          0.27263190       0.28862150       0.48470170
     2  C          0.72736810       0.71137850       0.51529830
     3  C          0.20213180       0.15613150       0.33047170
     4  C          0.79786820       0.84386850       0.66952830
     5  C          0.36806170       0.12356150       0.32246160
     6  C          0.63193830       0.87643850       0.67753840
     7  C          0.39226190       0.01360160       0.21618170
     8  C          0.60773810      -0.01360160       0.78381830
     9  H          0.29330000       0.94080000       0.12820000
    10  H          0.70670000       0.05920000       0.87180000
    11  C          0.57052000       0.01559180       0.24401180
    12  C          0.42948000      -0.01559180       0.75598820
    13  C          0.71742190       0.12245190       0.36432190
    14  C          0.28257810       0.87754810       0.63567810
    15  H          0.83130000       0.11620000       0.37220000
    16  H          0.16870000       0.88380000       0.62780000
    17  C          0.69151180       0.23337180       0.46907180
    18  C          0.30848820       0.76662820       0.53092820
    19  H          0.78830000       0.30920000       0.55120000
    20  H          0.21170000       0.69080000       0.44880000
    21  C          0.51515170       0.22925150       0.44893160
    22  C          0.48484830       0.77074850       0.55106840
    23  N          0.45677160       0.32363130       0.54376140
    24  N          0.54322840       0.67636870       0.45623860
    25  H          0.53330000       0.39320000       0.63520000
    26  H          0.46670000       0.60680000       0.36480000
    27  O          0.17722160       0.34426130       0.53751140
    28  O          0.82277840       0.65573870       0.46248860
    29  O          0.04277130       0.10042120       0.24154140
    30  O          0.95722870       0.89957880       0.75845860
    31  F          0.60203140       0.90748880       0.14601120
    32  F          0.39796860       0.09251120       0.85398880
    33  C          0.78182000       0.41521180       0.11959190
    34  C          0.21818000       0.58478820       0.88040810
    35  H          0.69250000       0.31630000       0.06660000
    36  H          0.30750000       0.68370000       0.93340000
    37  H          0.78530000       0.44890000       0.22910000
    38  H          0.21470000       0.55110000       0.77090000
    39  H          0.90360000       0.39440000       0.14050000
    40  H          0.09640000       0.60560000       0.85950000
    41  C          0.90882190       0.72168170       0.10596170
    42  C          0.09117810       0.27831830       0.89403830
    43  H          0.02220000       0.67990000       0.12850000
    44  H         -0.02220000       0.32010000       0.87150000
    45  H          0.90920000       0.74930000       0.21540000
    46  H          0.09080000       0.25070000       0.78460000
    47  H          0.90110000       0.81860000       0.04380000
    48  H          0.09890000       0.18140000       0.95620000
    49  O          0.73930140       0.52031120       0.82378120
    50  O          0.26069860       0.47968880       0.17621880
    51  S          0.71618400       0.57126400       0.97903400
    52  S          0.28381600       0.42873600       0.02096600
