data_TILWIW
_symmetry_space_group_name_H-M    'P1'
_symmetry_Int_Tables_number       1
loop_
_symmetry_equiv_pos_site_id
_symmetry_equiv_pos_as_xyz
1 x,y,z
_cell_length_a                   8.20848
_cell_length_b                   14.182713
_cell_length_c                   17.531416
_cell_angle_alpha                90.0
_cell_angle_beta                 90.0
_cell_angle_gamma                90.0
loop_
_atom_site_label
_atom_site_type_symbol
_atom_site_fract_x
_atom_site_fract_y
_atom_site_fract_z
     1  Br         0.39095600       0.09402300       0.06264300
     2  Br         0.10904400       0.90597700       0.56264300
     3  Br         0.60904400       0.59402300       0.43735700
     4  Br         0.89095600       0.40597700       0.93735700
     5  Br         0.00231600       0.10064400       0.07039300
     6  Br         0.49768400       0.89935600       0.57039300
     7  Br        -0.00231600       0.60064400       0.42960700
     8  Br         0.50231600       0.39935600       0.92960700
     9  Br         0.19482700       0.19263300       0.92952700
    10  Br         0.30517300       0.80736700       0.42952700
    11  Br         0.80517300       0.69263300       0.57047300
    12  Br         0.69482700       0.30736700       0.07047300
    13  O          0.09105000      -0.00512000       0.90458000
    14  O          0.40895000       0.00512000       0.40458000
    15  O          0.90895000       0.49488000       0.59542000
    16  O          0.59105000       0.50512000       0.09542000
    17  O          0.23235000       0.92728000      -0.00672000
    18  O          0.26765000       0.07272000       0.49328000
    19  O          0.76765000       0.42728000       0.50672000
    20  O          0.73235000       0.57272000       0.00672000
    21  C          0.19307000       0.09303000       0.00393000
    22  C          0.30693000       0.90697000       0.50393000
    23  C          0.80693000       0.59303000       0.49607000
    24  C          0.69307000       0.40697000      -0.00393000
    25  N          0.17276000      -0.00323000       0.96267000
    26  N          0.32724000       0.00323000       0.46267000
    27  N          0.82724000       0.49677000       0.53733000
    28  N          0.67276000       0.50323000       0.03733000
    29  Br         0.19471700       0.38076300       0.82414300
    30  Br         0.30528300       0.61923700       0.32414300
    31  Br         0.80528300       0.88076300       0.67585700
    32  Br         0.69471700       0.11923700       0.17585700
    33  N          0.80555000       0.19942000       0.68912000
    34  N          0.69445000       0.80058000       0.18912000
    35  N          0.19445000       0.69942000       0.81088000
    36  N          0.30555000       0.30058000       0.31088000
    37  C          0.74855000       0.14693000       0.61892000
    38  C          0.75145000       0.85307000       0.11892000
    39  C          0.25145000       0.64693000       0.88108000
    40  C          0.24855000       0.35307000       0.38108000
    41  H          0.62820000       0.15090000       0.61670000
    42  H          0.87180000       0.84910000       0.11670000
    43  H          0.37180000       0.65090000       0.88330000
    44  H          0.12820000       0.34910000       0.38330000
    45  H          0.77720000       0.07950000       0.62520000
    46  H          0.72280000       0.92050000       0.12520000
    47  H          0.22280000       0.57950000       0.87480000
    48  H          0.27720000       0.42050000       0.37480000
    49  C          0.81667000       0.18053000       0.54253000
    50  C          0.68333000       0.81947000       0.04253000
    51  C          0.18333000       0.68053000       0.95747000
    52  C          0.31667000       0.31947000       0.45747000
    53  H          0.80350000       0.24970000       0.53780000
    54  H          0.69650000       0.75030000       0.03780000
    55  H          0.19650000       0.74970000       0.96220000
    56  H          0.30350000       0.25030000       0.46220000
    57  H          0.93410000       0.16540000       0.53900000
    58  H          0.56590000       0.83460000       0.03900000
    59  H          0.06590000       0.66540000       0.96100000
    60  H          0.43410000       0.33460000       0.46100000
    61  C          0.72386000       0.13103000       0.47933000
    62  C          0.77614000       0.86897000       0.97933000
    63  C          0.27614000       0.63103000       0.02067000
    64  C          0.22386000       0.36897000       0.52067000
    65  H          0.74050000       0.06280000       0.48340000
    66  H          0.75950000       0.93720000       0.98340000
    67  H          0.25950000       0.56280000       0.01660000
    68  H          0.24050000       0.43720000       0.51660000
    69  H          0.76370000       0.15310000       0.42970000
    70  H          0.73630000       0.84690000       0.92970000
    71  H          0.23630000       0.65310000       0.07030000
    72  H          0.26370000       0.34690000       0.57030000
    73  H          0.60740000       0.14530000       0.48400000
    74  H          0.89260000       0.85470000       0.98400000
    75  H          0.39260000       0.64530000       0.01600000
    76  H          0.10740000       0.35470000       0.51600000
    77  C          0.75075000       0.30203000       0.68753000
    78  C          0.74925000       0.69797000       0.18753000
    79  C          0.24925000       0.80203000       0.81247000
    80  C          0.25075000       0.19797000       0.31247000
    81  H          0.79650000       0.33430000       0.73270000
    82  H          0.70350000       0.66570000       0.23270000
    83  H          0.20350000       0.83430000       0.76730000
    84  H          0.29650000       0.16570000       0.26730000
    85  H          0.79800000       0.33230000       0.64170000
    86  H          0.70200000       0.66770000       0.14170000
    87  H          0.20200000       0.83230000       0.85830000
    88  H          0.29800000       0.16770000       0.35830000
    89  C          0.56786000       0.31783000       0.68673000
    90  C          0.93214000       0.68217000       0.18673000
    91  C          0.43214000       0.81783000       0.81327000
    92  C          0.06786000       0.18217000       0.31327000
    93  H          0.51870000       0.29080000       0.73340000
    94  H          0.98130000       0.70920000       0.23340000
    95  H          0.48130000       0.79080000       0.76660000
    96  H          0.01870000       0.20920000       0.26660000
    97  H          0.51930000       0.28570000       0.64200000
    98  H          0.98070000       0.71430000       0.14200000
    99  H          0.48070000       0.78570000       0.85800000
   100  H          0.01930000       0.21430000       0.35800000
   101  C          0.53156000       0.42333000       0.68274000
   102  C          0.96844000       0.57667000       0.18274000
   103  C          0.46844000       0.92333000       0.81726000
   104  C          0.03156000       0.07667000       0.31726000
   105  H          0.60320000       0.45710000       0.71810000
   106  H          0.89680000       0.54290000       0.21810000
   107  H          0.39680000       0.95710000       0.78190000
   108  H          0.10320000       0.04290000       0.28190000
   109  H          0.41760000       0.43450000       0.69690000
   110  H          0.08240000       0.56550000       0.19690000
   111  H          0.58240000       0.93450000       0.80310000
   112  H          0.91760000       0.06550000       0.30310000
   113  H          0.55040000       0.44600000       0.63070000
   114  H          0.94960000       0.55400000       0.13070000
   115  H          0.44960000       0.94600000       0.86930000
   116  H          0.05040000       0.05400000       0.36930000
   117  C          0.73466000       0.14753000       0.75732000
   118  C          0.76534000       0.85247000       0.25732000
   119  C          0.26534000       0.64753000       0.74268000
   120  C          0.23466000       0.35247000       0.24268000
   121  H          0.61510000       0.14350000       0.75060000
   122  H          0.88490000       0.85650000       0.25060000
   123  H          0.38490000       0.64350000       0.74940000
   124  H          0.11510000       0.35650000       0.24940000
   125  H          0.77760000       0.08230000       0.75710000
   126  H          0.72240000       0.91770000       0.25710000
   127  H          0.22240000       0.58230000       0.74290000
   128  H          0.27760000       0.41770000       0.24290000
   129  C          0.76856000       0.19003000       0.83383000
   130  C          0.73144000       0.80997000       0.33383000
   131  C          0.23144000       0.69003000       0.66617000
   132  C          0.26856000       0.30997000       0.16617000
   133  H          0.71950000       0.25370000       0.83650000
   134  H          0.78050000       0.74630000       0.33650000
   135  H          0.28050000       0.75370000       0.66350000
   136  H          0.21950000       0.24630000       0.16350000
   137  H          0.88760000       0.19630000       0.84110000
   138  H          0.61240000       0.80370000       0.34110000
   139  H          0.11240000       0.69630000       0.65890000
   140  H          0.38760000       0.30370000       0.15890000
   141  C          0.69797000       0.12833000       0.89653000
   142  C          0.80203000       0.87167000       0.39653000
   143  C          0.30203000       0.62833000       0.60347000
   144  C          0.19797000       0.37167000       0.10347000
   145  H          0.58040000       0.12090000       0.88850000
   146  H          0.91960000       0.87910000       0.38850000
   147  H          0.41960000       0.62090000       0.61150000
   148  H          0.08040000       0.37910000       0.11150000
   149  H          0.71720000       0.15800000       0.94620000
   150  H          0.78280000       0.84200000       0.44620000
   151  H          0.28280000       0.65800000       0.55380000
   152  H          0.21720000       0.34200000       0.05380000
   153  H          0.75040000       0.06630000       0.89540000
   154  H          0.74960000       0.93370000       0.39540000
   155  H          0.24960000       0.56630000       0.60460000
   156  H          0.25040000       0.43370000       0.10460000
   157  C         -0.01004000       0.20363000       0.69343000
   158  C          0.51004000       0.79637000       0.19343000
   159  C          0.01004000       0.70363000       0.80657000
   160  C          0.48996000       0.29637000       0.30657000
   161  H          0.02050000       0.24310000       0.73770000
   162  H          0.47950000       0.75690000       0.23770000
   163  H          0.97950000       0.74310000       0.76230000
   164  H          0.52050000       0.25690000       0.26230000
   165  H          0.03060000       0.23550000       0.64700000
   166  H          0.46940000       0.76450000       0.14700000
   167  H          0.96940000       0.73550000       0.85300000
   168  H          0.53060000       0.26450000       0.35300000
   169  C          0.07626000       0.10924000       0.70063000
   170  C          0.42374000       0.89076000       0.20063000
   171  C          0.92374000       0.60924000       0.79937000
   172  C          0.57626000       0.39076000       0.29937000
   173  H          0.05380000       0.08140000       0.75130000
   174  H          0.44620000       0.91860000       0.25130000
   175  H          0.94620000       0.58140000       0.74870000
   176  H          0.55380000       0.41860000       0.24870000
   177  H          0.03530000       0.06520000       0.66120000
   178  H          0.46470000       0.93480000       0.16120000
   179  H          0.96470000       0.56520000       0.83880000
   180  H          0.53530000       0.43480000       0.33880000
   181  C          0.25675000       0.12344000       0.69083000
   182  C          0.24325000       0.87656000       0.19083000
   183  C          0.74325000       0.62344000       0.80917000
   184  C          0.75675000       0.37656000       0.30917000
   185  H          0.27780000       0.15430000       0.64180000
   186  H          0.22220000       0.84570000       0.14180000
   187  H          0.72220000       0.65430000       0.85820000
   188  H          0.77780000       0.34570000       0.35820000
   189  H          0.31180000       0.06220000       0.69210000
   190  H          0.18820000       0.93780000       0.19210000
   191  H          0.68820000       0.56220000       0.80790000
   192  H          0.81180000       0.43780000       0.30790000
   193  H          0.29800000       0.16310000       0.73230000
   194  H          0.20200000       0.83690000       0.23230000
   195  H          0.70200000       0.66310000       0.76770000
   196  H          0.79800000       0.33690000       0.26770000
