data_TILWOC
_symmetry_space_group_name_H-M    'P1'
_symmetry_Int_Tables_number       1
loop_
_symmetry_equiv_pos_site_id
_symmetry_equiv_pos_as_xyz
1 x,y,z
_cell_length_a                   8.39796
_cell_length_b                   8.87126
_cell_length_c                   13.10208
_cell_angle_alpha                90.0
_cell_angle_beta                 96.6883
_cell_angle_gamma                90.0
loop_
_atom_site_label
_atom_site_type_symbol
_atom_site_fract_x
_atom_site_fract_y
_atom_site_fract_z
     1  Br         0.73339800       0.78841900       0.00018500
     2  Br         0.23339800       0.21158100       0.50018500
     3  Br         0.11303800       0.76988900       0.00111500
     4  Br         0.61303800       0.23011100       0.50111500
     5  Br         0.89613800       0.88013800       0.80083500
     6  Br         0.39613800       0.11986200       0.30083500
     7  F          0.89456000       0.60215000       0.88604000
     8  F          0.39456000       0.39785000       0.38604000
     9  C          0.90799000       0.74778000       0.91935000
    10  C          0.40799000       0.25222000       0.41935000
    11  Br         0.43881800       0.86102800       0.13379500
    12  Br         0.93881800       0.13897200       0.63379500
    13  N          0.39297000       0.25347000       0.90254000
    14  N          0.89297000       0.74653000       0.40254000
    15  C          0.42898000       0.08938000       0.87645000
    16  C          0.92898000       0.91062000       0.37645000
    17  H          0.54560000       0.08020000       0.87260000
    18  H          0.04560000       0.91980000       0.37260000
    19  H          0.40310000       0.02500000       0.93400000
    20  H          0.90310000       0.97500000       0.43400000
    21  C          0.34219000       0.02709000       0.77846000
    22  C          0.84219000       0.97291000       0.27846000
    23  H          0.37300000       0.08380000       0.71870000
    24  H          0.87300000       0.91620000       0.21870000
    25  H          0.22490000       0.03720000       0.77920000
    26  H          0.72490000       0.96280000       0.27920000
    27  C          0.38641200       0.86021000       0.76917000
    28  C          0.88641200       0.13979000       0.26917000
    29  H          0.50160000       0.85140000       0.76430000
    30  H          0.00160000       0.14860000       0.26430000
    31  H          0.32630000       0.81740000       0.70730000
    32  H          0.82630000       0.18260000       0.20730000
    33  H          0.35970000       0.80550000       0.82980000
    34  H          0.85970000       0.19450000       0.32980000
    35  C          0.43328000       0.35888000       0.81745000
    36  C          0.93328000       0.64112000       0.31745000
    37  H          0.36310000       0.33240000       0.75390000
    38  H          0.86310000       0.66760000       0.25390000
    39  H          0.40540000       0.46280000       0.83640000
    40  H          0.90540000       0.53720000       0.33640000
    41  C          0.60499000       0.35949000       0.79286000
    42  C          0.10499000       0.64051000       0.29286000
    43  H          0.67900000       0.37400000       0.85650000
    44  H          0.17900000       0.62600000       0.35650000
    45  H          0.63040000       0.26170000       0.76200000
    46  H          0.13040000       0.73830000       0.26200000
    47  C          0.62509000       0.48579000       0.71845000
    48  C          0.12509000       0.51421000       0.21845000
    49  H          0.54690000       0.47380000       0.65730000
    50  H          0.04690000       0.52620000       0.15730000
    51  H          0.73380000       0.48280000       0.69820000
    52  H          0.23380000       0.51720000       0.19820000
    53  H          0.60760000       0.58250000       0.75130000
    54  H          0.10760000       0.41750000       0.25130000
    55  C          0.49549000       0.28598000       0.00335000
    56  C         -0.00451000       0.71402000       0.50335000
    57  H          0.46700000       0.21270000       0.05530000
    58  H          0.96700000       0.78730000       0.55530000
    59  H          0.60910000       0.26850000      -0.00650000
    60  H          0.10910000       0.73150000       0.49350000
    61  C          0.48009000       0.44299000       0.04545000
    62  C          0.98009000       0.55701000       0.54545000
    63  H          0.36780000       0.46160000       0.05810000
    64  H          0.86780000       0.53840000       0.55810000
    65  H          0.50920000       0.51820000      -0.00500000
    66  H          0.00920000       0.48180000       0.49500000
    67  C          0.59099000       0.45819000       0.14545000
    68  C          0.09099000       0.54181000       0.64545000
    69  H          0.56120000       0.38350000       0.19500000
    70  H          0.06120000       0.61650000       0.69500000
    71  H          0.58100000       0.55970000       0.17330000
    72  H          0.08100000       0.44030000       0.67330000
    73  H          0.70200000       0.44100000       0.13210000
    74  H          0.20200000       0.55900000       0.63210000
    75  C          0.21458000       0.27628000       0.91065000
    76  C          0.71458000       0.72372000       0.41065000
    77  H          0.19490000       0.38520000       0.91940000
    78  H          0.69490000       0.61480000       0.41940000
    79  H          0.15340000       0.24470000       0.84490000
    80  H          0.65340000       0.75530000       0.34490000
    81  C          0.14929000       0.19239000      -0.00314000
    82  C          0.64929000       0.80761000       0.49686000
    83  H          0.20030000       0.22950000       0.06390000
    84  H          0.70030000       0.77050000       0.56390000
    85  H          0.17240000       0.08330000      -0.00810000
    86  H          0.67240000       0.91670000       0.49190000
    87  C          0.96659000       0.21821000       0.98787000
    88  C          0.46659000       0.78179000       0.48787000
    89  H          0.94500000       0.32580000      -0.00370000
    90  H          0.44500000       0.67420000       0.49630000
    91  H          0.92130000       0.16060000       0.04140000
    92  H          0.42130000       0.83940000       0.54140000
    93  H          0.91760000       0.18480000       0.92010000
    94  H          0.41760000       0.81520000       0.42010000
