data_TIMGUS
_symmetry_space_group_name_H-M    'P1'
_symmetry_Int_Tables_number       1
loop_
_symmetry_equiv_pos_site_id
_symmetry_equiv_pos_as_xyz
1 x,y,z
_cell_length_a                   6.24831
_cell_length_b                   11.81822
_cell_length_c                   14.89313
_cell_angle_alpha                67.5431
_cell_angle_beta                 86.7541
_cell_angle_gamma                79.3041
loop_
_atom_site_label
_atom_site_type_symbol
_atom_site_fract_x
_atom_site_fract_y
_atom_site_fract_z
     1  N          0.64543000       0.57997160       0.32144120
     2  N          0.35457000       0.42002840       0.67855880
     3  C          0.46803000       0.54142000       0.37336150
     4  C          0.53197000       0.45858000       0.62663850
     5  H          0.45380000       0.45650000       0.39450000
     6  H          0.54620000       0.54350000       0.60550000
     7  C          0.30963000       0.62342000       0.39550150
     8  C          0.69037000       0.37658000       0.60449850
     9  H          0.18810000       0.59450000       0.43260000
    10  H          0.81190000       0.40550000       0.56740000
    11  C          0.32503000       0.74872000       0.36423150
    12  C          0.67497000       0.25128000       0.63576850
    13  H          0.21730000       0.80620000       0.37990000
    14  H          0.78270000       0.19380000       0.62010000
    15  C          0.57214000       0.91082000       0.26437160
    16  C          0.42786000       0.08918000       0.73562840
    17  C          0.92284000       0.96752000       0.16232170
    18  C          0.07716000       0.03248000       0.83767830
    19  H          0.89390000       0.05370000       0.15070000
    20  H          0.10610000       0.94630000       0.84930000
    21  C          0.10574000       0.91433000       0.12544170
    22  C          0.89426000       0.08567000       0.87455830
    23  H          0.20480000       0.96470000       0.08700000
    24  H          0.79520000       0.03530000       0.91300000
    25  C          0.14424000       0.78833000       0.14448160
    26  C          0.85576000       0.21167000       0.85551840
    27  H          0.27280000       0.75470000       0.11940000
    28  H          0.72720000       0.24530000       0.88060000
    29  N          0.01113000       0.71002180       0.19626130
    30  N         -0.01113000       0.28997820       0.80373870
    31  C          0.83633000       0.76322000       0.23048140
    32  C          0.16367000       0.23678000       0.76951860
    33  C          0.78433000       0.88812000       0.21708150
    34  C          0.21567000       0.11188000       0.78291850
    35  C          0.66133000       0.70025190       0.28872140
    36  C          0.33867000       0.29974810       0.71127860
    37  C          0.50373000       0.78569190       0.30951150
    38  C          0.49627000       0.21430810       0.69048850
    39  O          0.47073000       0.00853150       0.26400130
    40  O          0.52927000       0.99146850       0.73599870
    41  C          0.81214000       0.48942000       0.29849160
    42  C          0.18786000       0.51058000       0.70150840
    43  H          0.80920000       0.40470000       0.34740000
    44  H          0.19080000       0.59530000       0.65260000
    45  H          0.95820000       0.50920000       0.30100000
    46  H          0.04180000       0.49080000       0.69900000
    47  C          0.76943000       0.49303190       0.19828150
    48  C          0.23057000       0.50696810       0.80171850
    49  O          0.60732000       0.55717140       0.15153110
    50  O          0.39268000       0.44282860       0.84846890
    51  C          0.93453000       0.41463190       0.16012140
    52  C          0.06547000       0.58536810       0.83987860
    53  C          0.87213000       0.38827190       0.08271150
    54  C          0.12787000       0.61172810       0.91728850
    55  H          0.72720000       0.41790000       0.05770000
    56  H          0.27280000       0.58210000       0.94230000
    57  C          0.01963000       0.31942000       0.04228150
    58  C          0.98037000       0.68058000       0.95771850
    59  H          0.97750000       0.29890000      -0.00920000
    60  H          0.02250000       0.70110000       0.00920000
    61  C          0.23113000       0.28112180       0.07917150
    62  C          0.76887000       0.71887820       0.92082850
    63  C          0.29793000       0.30462000       0.15630150
    64  C          0.70207000       0.69538000       0.84369850
    65  H          0.44380000       0.27610000       0.18030000
    66  H          0.55620000       0.72390000       0.81970000
    67  C          0.14623000       0.37082000       0.19767150
    68  C          0.85377000       0.62918000       0.80232850
    69  H          0.18670000       0.38640000       0.25180000
    70  H          0.81330000       0.61360000       0.74820000
    71  N          0.39213000       0.21203160       0.03434120
    72  N          0.60787000       0.78796840       0.96565880
    73  O          0.32712000       0.16467140       0.98340890
    74  O          0.67288000       0.83532860       0.01659110
    75  O          0.58562000       0.20652150       0.04911110
    76  O          0.41438000       0.79347850       0.95088890
    77  Br         0.17444300       0.28649200       0.49452416
    78  Br         0.82555700       0.71350800       0.50547584
    79  C          0.91994000       0.08282000       0.37029190
    80  C          0.08006000       0.91718000       0.62970810
    81  H          0.03670000       0.08920000       0.40840000
    82  H          0.96330000       0.91080000       0.59160000
    83  H          0.95870000       0.11170000       0.30150000
    84  H          0.04130000       0.88830000       0.69850000
    85  H          0.90020000      -0.00400000       0.39280000
    86  H          0.09980000       0.00400000       0.60720000
    87  C          0.71314000       0.16152000       0.38267160
    88  C          0.28686000       0.83848000       0.61732840
    89  O          0.63163000       0.26075150       0.32204110
    90  O          0.36837000       0.73924850       0.67795890
    91  O          0.62713000       0.11319160       0.46960120
    92  O          0.37287000       0.88680840       0.53039880
    93  H          0.50720000       0.15780000       0.47200000
    94  H          0.49280000       0.84220000       0.52800000
