data_TIPGIJ
_symmetry_space_group_name_H-M    'P1'
_symmetry_Int_Tables_number       1
loop_
_symmetry_equiv_pos_site_id
_symmetry_equiv_pos_as_xyz
1 x,y,z
_cell_length_a                   10.16704
_cell_length_b                   10.44884
_cell_length_c                   22.979511
_cell_angle_alpha                90.0
_cell_angle_beta                 90.0
_cell_angle_gamma                90.0
loop_
_atom_site_label
_atom_site_type_symbol
_atom_site_fract_x
_atom_site_fract_y
_atom_site_fract_z
     1  C          0.57945000       0.67715000       0.39703000
     2  C          0.92055000       0.32285000       0.89703000
     3  C          0.42055000       0.17715000       0.10297000
     4  C          0.07945000       0.82285000       0.60297000
     5  H          0.62640000       0.70370000       0.36450000
     6  H          0.87360000       0.29630000       0.86450000
     7  H          0.37360000       0.20370000       0.13550000
     8  H          0.12640000       0.79630000       0.63550000
     9  C          0.63085000       0.68905000       0.44903000
    10  C          0.86915000       0.31095000       0.94903000
    11  C          0.36915000       0.18905000       0.05097000
    12  C          0.13085000       0.81095000       0.55097000
    13  H          0.71450000       0.72390000       0.45270000
    14  H          0.78550000       0.27610000       0.95270000
    15  H          0.28550000       0.22390000       0.04730000
    16  H          0.21450000       0.77610000       0.54730000
    17  C          0.56447000       0.65135000       0.49823000
    18  C          0.93553000       0.34865000      -0.00177000
    19  C          0.43553000       0.15135000       0.00177000
    20  C          0.06447000       0.84865000       0.50177000
    21  H          0.60280000       0.66030000       0.53470000
    22  H          0.89720000       0.33970000       0.03470000
    23  H          0.39720000       0.16030000       0.96530000
    24  H          0.10280000       0.83970000       0.46530000
    25  C          0.43675000       0.59854000       0.49251190
    26  C          0.06325000       0.40146000       0.99251190
    27  C          0.56325000       0.09854000       0.00748810
    28  C          0.93675000       0.90146000       0.50748810
    29  H          0.38910000       0.57420000       0.52520000
    30  H          0.11090000       0.42580000       0.02520000
    31  H          0.61090000       0.07420000       0.97480000
    32  H          0.88910000       0.92580000       0.47480000
    33  C          0.38493000       0.58414000       0.43810150
    34  C          0.11507000       0.41586000       0.93810150
    35  C          0.61507000       0.08414000       0.06189850
    36  C          0.88493000       0.91586000       0.56189850
    37  C          0.45655000       0.62554000       0.39051190
    38  C          0.04345000       0.37446000       0.89051190
    39  C          0.54345000       0.12554000       0.10948810
    40  C          0.95655000       0.87446000       0.60948810
    41  H          0.42050000       0.61820000       0.35350000
    42  H          0.07950000       0.38180000       0.85350000
    43  H          0.57950000       0.11820000       0.14650000
    44  H          0.92050000       0.88180000       0.64650000
    45  C          0.25615000       0.51655000       0.43032000
    46  C          0.24385000       0.48345000       0.93032000
    47  C          0.74385000       0.01655000       0.06968000
    48  C          0.75615000       0.98345000       0.56968000
    49  H          0.27150000       0.42910000       0.41790000
    50  H          0.22850000       0.57090000       0.91790000
    51  H          0.72850000       0.92910000       0.08210000
    52  H          0.77150000       0.07090000       0.58210000
    53  H          0.20920000       0.51420000       0.46710000
    54  H          0.29080000       0.48580000       0.96710000
    55  H          0.79080000       0.01420000       0.03290000
    56  H          0.70920000       0.98580000       0.53290000
    57  C          0.09223000       0.51203000       0.35739150
    58  C          0.40777000       0.48797000       0.85739150
    59  C          0.90777000       0.01203000       0.14260850
    60  C          0.59223000      -0.01203000       0.64260850
    61  C          0.02453000       0.58973000       0.31191150
    62  C          0.47547000       0.41027000       0.81191150
    63  C          0.97547000       0.08973000       0.18808850
    64  C          0.52453000       0.91027000       0.68808850
    65  H          0.09020000       0.62490000       0.28590000
    66  H          0.40980000       0.37510000       0.78590000
    67  H          0.90980000       0.12490000       0.21410000
    68  H          0.59020000       0.87510000       0.71410000
    69  H          0.98030000       0.66090000       0.33060000
    70  H          0.51970000       0.33910000       0.83060000
    71  H          0.01970000       0.16090000       0.16940000
    72  H          0.48030000       0.83910000       0.66940000
    73  C          0.92483000       0.51603000       0.27626130
    74  C          0.57517000       0.48397000       0.77626130
    75  C          0.07517000       0.01603000       0.22373870
    76  C          0.42483000       0.98397000       0.72373870
    77  H          0.96620000       0.44090000       0.25850000
    78  H          0.53380000       0.55910000       0.75850000
    79  H          0.03380000       0.94090000       0.24150000
    80  H          0.46620000       0.05910000       0.74150000
    81  C          0.87433000       0.60433000       0.23001140
    82  C          0.62567000       0.39567000       0.73001140
    83  C          0.12567000       0.10433000       0.26998860
    84  C          0.37433000       0.89567000       0.76998860
    85  H          0.94950000       0.63390000       0.20780000
    86  H          0.55050000       0.36610000       0.70780000
    87  H          0.05050000       0.13390000       0.29220000
    88  H          0.44950000       0.86610000       0.79220000
    89  H          0.83720000       0.67850000       0.24930000
    90  H          0.66280000       0.32150000       0.74930000
    91  H          0.16280000       0.17850000       0.25070000
    92  H          0.33720000       0.82150000       0.75070000
    93  C          0.77166000       0.64356000       0.13632000
    94  C          0.72834000       0.35644000       0.63632000
    95  C          0.22834000       0.14356000       0.36368000
    96  C          0.27166000       0.85644000       0.86368000
    97  H          0.75710000       0.72970000       0.14940000
    98  H          0.74290000       0.27030000       0.64940000
    99  H          0.24290000       0.22970000       0.35060000
   100  H          0.25710000       0.77030000       0.85060000
   101  H          0.70220000       0.61890000       0.11030000
   102  H          0.79780000       0.38110000       0.61030000
   103  H          0.29780000       0.11890000       0.38970000
   104  H          0.20220000       0.88110000       0.88970000
   105  H          0.85440000       0.63870000       0.11640000
   106  H          0.64560000       0.36130000       0.61640000
   107  H          0.14560000       0.13870000       0.38360000
   108  H          0.35440000       0.86130000       0.88360000
   109  C          0.80135000       0.42165000       0.16682000
   110  C          0.69865000       0.57835000       0.66682000
   111  C          0.19865000       0.92165000       0.33318000
   112  C          0.30135000       0.07835000       0.83318000
   113  H          0.73590000       0.39630000       0.13900000
   114  H          0.76410000       0.60370000       0.63900000
   115  H          0.26410000       0.89630000       0.36100000
   116  H          0.23590000       0.10370000       0.86100000
   117  H          0.79940000       0.36420000       0.19940000
   118  H          0.70060000       0.63580000       0.69940000
   119  H          0.20060000       0.86420000       0.30060000
   120  H          0.29940000       0.13580000       0.80060000
   121  H          0.88660000       0.41890000       0.14890000
   122  H          0.61340000       0.58110000       0.64890000
   123  H          0.11340000       0.91890000       0.35110000
   124  H          0.38660000       0.08110000       0.85110000
   125  C          0.63894000       0.55356000       0.21422000
   126  C          0.86106000       0.44644000       0.71422000
   127  C          0.36106000       0.05356000       0.28578000
   128  C          0.13894000       0.94644000       0.78578000
   129  H          0.61770000       0.63710000       0.22870000
   130  H          0.88230000       0.36290000       0.72870000
   131  H          0.38230000       0.13710000       0.27130000
   132  H          0.11770000       0.86290000       0.77130000
   133  H          0.63760000       0.49310000       0.24570000
   134  H          0.86240000       0.50690000       0.74570000
   135  H          0.36240000      -0.00690000       0.25430000
   136  H          0.13760000       0.00690000       0.75430000
   137  H          0.57540000       0.52880000       0.18540000
   138  H          0.92460000       0.47120000       0.68540000
   139  H          0.42460000       0.02880000       0.31460000
   140  H          0.07540000       0.97120000       0.81460000
   141  C          0.79643000       0.35043000       0.32137130
   142  C          0.70357000       0.64957000       0.82137130
   143  C          0.20357000       0.85043000       0.17862870
   144  C          0.29643000       0.14957000       0.67862870
   145  C          0.69793000       0.32583000       0.36670130
   146  C          0.80207000       0.67417000       0.86670130
   147  C          0.30207000       0.82583000       0.13329870
   148  C          0.19793000       0.17417000       0.63329870
   149  H          0.65580000       0.39360000       0.38520000
   150  H          0.84420000       0.60640000       0.88520000
   151  H          0.34420000       0.89360000       0.11480000
   152  H          0.15580000       0.10640000       0.61480000
   153  C          0.66923000       0.20543000       0.38118130
   154  C          0.83077000       0.79457000       0.88118130
   155  C          0.33077000       0.70543000       0.11881870
   156  C          0.16923000       0.29457000       0.61881870
   157  H          0.71320000       0.14160000       0.36080000
   158  H          0.78680000       0.85840000       0.86080000
   159  H          0.28680000       0.64160000       0.13920000
   160  H          0.21320000       0.35840000       0.63920000
   161  C          0.57583000       0.16303000       0.42578130
   162  C          0.92417000       0.83697000       0.92578130
   163  C          0.42417000       0.66303000       0.07421870
   164  C          0.07583000       0.33697000       0.57421870
   165  C          0.54853000       0.03413000       0.43073150
   166  C          0.95147000       0.96587000       0.93073150
   167  C          0.45147000       0.53413000       0.06926850
   168  C          0.04853000       0.46587000       0.56926850
   169  H          0.59140000       0.97590000       0.40670000
   170  H          0.90860000       0.02410000       0.90670000
   171  H          0.40860000       0.47590000       0.09330000
   172  H          0.09140000       0.52410000       0.59330000
   173  C          0.45714000      -0.00964000       0.47148170
   174  C          0.04286000       0.00964000       0.97148170
   175  C          0.54286000       0.49036000       0.02851830
   176  C          0.95714000       0.50964000       0.52851830
   177  H          0.43740000       0.90360000       0.47370000
   178  H          0.06260000       0.09640000       0.97370000
   179  H          0.56260000       0.40360000       0.02630000
   180  H          0.93740000       0.59640000       0.52630000
   181  C          0.39674000       0.07524000       0.50804170
   182  C          0.10326000       0.92476000       0.00804170
   183  C          0.60326000       0.57524000       0.99195830
   184  C          0.89674000       0.42476000       0.49195830
   185  H          0.33670000       0.04590000       0.53550000
   186  H          0.16330000       0.95410000       0.03550000
   187  H          0.66330000       0.54590000       0.96450000
   188  H          0.83670000       0.45410000       0.46450000
   189  C          0.42464000       0.20454000       0.50423180
   190  C          0.07536000       0.79546000       0.00423180
   191  C          0.57536000       0.70454000      -0.00423180
   192  C          0.92464000       0.29546000       0.49576820
   193  H          0.38290000       0.26190000       0.52910000
   194  H          0.11710000       0.73810000       0.02910000
   195  H          0.61710000       0.76190000       0.97090000
   196  H          0.88290000       0.23810000       0.47090000
   197  C          0.51464000       0.24904000       0.46349150
   198  C          0.98536000       0.75096000       0.96349150
   199  C          0.48536000       0.74904000       0.03650850
   200  C          0.01464000       0.25096000       0.53650850
   201  H          0.53400000       0.33590000       0.46140000
   202  H          0.96600000       0.66410000       0.96140000
   203  H          0.46600000       0.83590000       0.03860000
   204  H          0.03400000       0.16410000       0.53860000
   205  N          0.77333000       0.55573000       0.18732120
   206  N          0.72667000       0.44427000       0.68732120
   207  N          0.22667000       0.05573000       0.31267880
   208  N          0.27333000       0.94427000       0.81267880
   209  O          0.17763000       0.58322000       0.38699110
   210  O          0.32237000       0.41678000       0.88699110
   211  O          0.82237000       0.08322000       0.11300890
   212  O          0.67763000       0.91678000       0.61300890
   213  O          0.07543000       0.40042000       0.36643130
   214  O          0.42457000       0.59958000       0.86643130
   215  O          0.92457000       0.90042000       0.13356870
   216  O          0.57543000       0.09958000       0.63356870
   217  O          0.81958190       0.47657180       0.31532900
   218  O          0.68041810       0.52342820       0.81532900
   219  O          0.18041810       0.97657180       0.18467100
   220  O          0.31958190       0.02342820       0.68467100
   221  O          0.84943000       0.26952000       0.29206110
   222  O          0.65057000       0.73048000       0.79206110
   223  O          0.15057000       0.76952000       0.20793890
   224  O          0.34943000       0.23048000       0.70793890
   225  Cl         0.34728190       0.42532000       0.25740800
   226  Cl         0.15271810       0.57468000       0.75740800
   227  Cl         0.65271810       0.92532000       0.24259200
   228  Cl         0.84728190       0.07468000       0.74259200
   229  Cl         0.15256130       0.39911120       0.15612600
   230  Cl         0.34743870       0.60088880       0.65612600
   231  Cl         0.84743870       0.89911120       0.34387400
   232  Cl         0.65256130       0.10088880       0.84387400
   233  H          0.23690000       0.41490000       0.20180000
   234  H          0.26310000       0.58510000       0.70180000
   235  H          0.76310000       0.91490000       0.29820000
   236  H          0.73690000       0.08510000       0.79820000
