data_TIPJUA
_symmetry_space_group_name_H-M    'P1'
_symmetry_Int_Tables_number       1
loop_
_symmetry_equiv_pos_site_id
_symmetry_equiv_pos_as_xyz
1 x,y,z
_cell_length_a                   9.7644
_cell_length_b                   11.5944
_cell_length_c                   22.9019
_cell_angle_alpha                101.902
_cell_angle_beta                 97.563
_cell_angle_gamma                99.982
loop_
_atom_site_label
_atom_site_type_symbol
_atom_site_fract_x
_atom_site_fract_y
_atom_site_fract_z
     1  C          0.30725000       0.43753000       0.72662000
     2  C          0.69275000       0.56247000       0.27338000
     3  C          0.24655000       0.45323000       0.78032000
     4  C          0.75345000       0.54677000       0.21968000
     5  C          0.30874000       0.55373000       0.82992000
     6  C          0.69126000       0.44627000       0.17008000
     7  C          0.42805000       0.63753000       0.82502000
     8  C          0.57195000       0.36247000       0.17498000
     9  C          0.47895000       0.62704000       0.76872000
    10  C          0.52105000       0.37296000       0.23128000
    11  C          0.41975000       0.52564000       0.71942000
    12  C          0.58025000       0.47436000       0.28058000
    13  C          0.25585000       0.32214000       0.67522000
    14  C          0.74415000       0.67786000       0.32478000
    15  H          0.16460000       0.27720000       0.68090000
    16  H          0.83540000       0.72280000       0.31910000
    17  H          0.24100000       0.34420000       0.63560000
    18  H          0.75900000       0.65580000       0.36440000
    19  N          0.36254000       0.24443000       0.67522170
    20  N          0.63746000       0.75557000       0.32477830
    21  C          0.47865000       0.25354000       0.71892000
    22  C          0.52135000       0.74646000       0.28108000
    23  H          0.50300000       0.31410000       0.75560000
    24  H          0.49700000       0.68590000       0.24440000
    25  N          0.55234000       0.16903000       0.70437180
    26  N          0.44766000       0.83097000       0.29562820
    27  C          0.50395000      -0.00754000       0.61032000
    28  C          0.49605000       0.00754000       0.38968000
    29  H          0.58380000       0.96050000       0.62200000
    30  H          0.41620000       0.03950000       0.37800000
    31  C          0.41035000       0.93576000       0.55582000
    32  C          0.58965000       0.06424000       0.44418000
    33  C          0.29155000       0.98456000       0.53742000
    34  C          0.70845000       0.01544000       0.46258000
    35  C          0.26655000       0.08944000       0.57382000
    36  C          0.73345000       0.91056000       0.42618000
    37  H          0.18800000       0.12260000       0.56170000
    38  H          0.81200000       0.87740000       0.43830000
    39  C          0.36055000       0.14443000       0.62862000
    40  C          0.63945000       0.85557000       0.37138000
    41  C          0.47835000       0.09764000       0.64782000
    42  C          0.52165000       0.90236000       0.35218000
    43  C          0.43616000       0.82096000       0.51682000
    44  C          0.56384000       0.17904000       0.48318000
    45  H          0.52300000       0.80170000       0.53530000
    46  H          0.47700000       0.19830000       0.46470000
    47  H          0.44550000       0.83280000       0.47620000
    48  H          0.55450000       0.16720000       0.52380000
    49  H          0.35630000       0.75450000       0.51360000
    50  H          0.64370000       0.24550000       0.48640000
    51  C          0.19026000       0.92166000       0.47882000
    52  C          0.80974000       0.07834000       0.52118000
    53  H          0.11750000       0.96850000       0.47220000
    54  H          0.88250000       0.03150000       0.52780000
    55  H          0.14530000       0.84100000       0.48160000
    56  H          0.85470000       0.15900000       0.51840000
    57  H          0.24230000       0.91500000       0.44490000
    58  H          0.75770000       0.08500000       0.55510000
    59  C          0.11545000       0.36504000       0.78702000
    60  C          0.88455000       0.63496000       0.21298000
    61  H          0.14420000       0.31320000       0.81320000
    62  H          0.85580000       0.68680000       0.18680000
    63  H          0.06900000       0.31510000       0.74700000
    64  H          0.93100000       0.68490000       0.25300000
    65  H          0.04960000       0.41050000       0.80510000
    66  H          0.95040000       0.58950000       0.19490000
    67  C          0.24285000       0.57124000       0.88802000
    68  C          0.75715000       0.42876000       0.11198000
    69  H          0.29690000       0.64580000       0.91700000
    70  H          0.70310000       0.35420000       0.08300000
    71  H          0.14490000       0.58190000       0.87760000
    72  H          0.85510000       0.41810000       0.12240000
    73  N          0.24064000       0.46873000       0.91786170
    74  N          0.75936000       0.53127000       0.08213830
    75  C          0.12385000       0.40644000       0.93422000
    76  C          0.87615000       0.59356000       0.06578000
    77  H          0.03620000       0.43170000       0.93270000
    78  H          0.96380000       0.56830000       0.06730000
    79  N          0.14444000       0.30873000       0.95230190
    80  N          0.85556000       0.69127000       0.04769810
    81  C          0.36795000       0.21974000       0.95842000
    82  C          0.63205000       0.78026000       0.04158000
    83  H          0.32730000       0.15170000       0.97210000
    84  H          0.67270000       0.84830000       0.02790000
    85  C          0.50965000       0.23714000       0.94942000
    86  C          0.49035000       0.76286000       0.05058000
    87  C          0.57145000       0.34104000       0.93012000
    88  C          0.42855000       0.65896000       0.06988000
    89  C          0.49075000       0.42474000       0.91812000
    90  C          0.50925000       0.57526000       0.08188000
    91  H          0.53060000       0.49350000       0.90490000
    92  H          0.46940000       0.50650000       0.09510000
    93  C          0.34915000       0.40454000       0.92612000
    94  C          0.65085000       0.59546000       0.07388000
    95  C          0.28745000       0.30554000       0.94672000
    96  C          0.71255000       0.69446000       0.05328000
    97  C          0.59586000       0.14344000       0.95973000
    98  C          0.40414000       0.85656000       0.04027000
    99  H          0.53830000       0.07960000       0.97340000
   100  H          0.46170000       0.92040000       0.02660000
   101  H          0.67970000       0.18170000       0.99060000
   102  H          0.32030000       0.81830000       0.00940000
   103  H          0.62490000       0.10860000       0.92170000
   104  H          0.37510000       0.89140000       0.07830000
   105  C          0.72715000       0.36265000       0.92233000
   106  C          0.27285000       0.63735000       0.07767000
   107  H          0.73910000       0.30230000       0.88760000
   108  H          0.26090000       0.69770000       0.11240000
   109  H          0.78610000       0.35590000       0.95910000
   110  H          0.21390000       0.64410000       0.04090000
   111  H          0.75520000       0.44330000       0.91540000
   112  H          0.24480000       0.55670000       0.08460000
   113  C          0.50985000       0.73784000       0.88012000
   114  C          0.49015000       0.26216000       0.11988000
   115  H          0.47780000       0.81300000       0.87890000
   116  H          0.52220000       0.18700000       0.12110000
   117  H          0.61110000       0.74990000       0.87880000
   118  H          0.38890000       0.25010000       0.12120000
   119  H          0.49240000       0.71420000       0.91760000
   120  H          0.50760000       0.28580000       0.08240000
   121  C          0.59935000       0.72404000       0.76062000
   122  C          0.40065000       0.27596000       0.23938000
   123  H          0.57440000       0.74360000       0.72100000
   124  H          0.42560000       0.25640000       0.27900000
   125  H          0.60830000       0.79800000       0.79260000
   126  H          0.39170000       0.20200000       0.20740000
   127  N          0.73744000       0.68713000       0.76331170
   128  N          0.26256000       0.31287000       0.23668830
   129  C          0.79155000       0.61824000       0.79952000
   130  C          0.20845000       0.38176000       0.20048000
   131  H          0.74110000       0.58590000       0.82720000
   132  H          0.25890000       0.41410000       0.17280000
   133  N          0.91994000       0.60073000       0.79217180
   134  N          0.08006000       0.39927000       0.20782820
   135  C          0.07475000       0.67254000       0.71882000
   136  C          0.92525000       0.32746000       0.28118000
   137  H          0.15040000       0.63580000       0.73020000
   138  H          0.84960000       0.36420000       0.26980000
   139  C          0.08105000       0.73784000       0.67362000
   140  C          0.91895000       0.26216000       0.32638000
   141  C          0.96775000       0.79374000       0.65592000
   142  C          0.03225000       0.20626000       0.34408000
   143  C          0.84735000       0.78293000       0.68382000
   144  C          0.15265000       0.21707000       0.31618000
   145  H          0.77130000       0.81950000       0.67250000
   146  H          0.22870000       0.18050000       0.32750000
   147  C          0.84235000       0.71663000       0.72862000
   148  C          0.15765000       0.28337000       0.27138000
   149  C          0.95395000       0.66224000       0.74702000
   150  C          0.04605000       0.33776000       0.25298000
   151  C          0.21126000       0.74835000       0.64153000
   152  C          0.78874000       0.25165000       0.35847000
   153  H          0.28050000       0.70800000       0.65940000
   154  H          0.71950000       0.29200000       0.34060000
   155  H          0.25380000       0.83350000       0.64640000
   156  H          0.74620000       0.16650000       0.35360000
   157  H          0.18170000       0.70990000       0.59820000
   158  H          0.81830000       0.29010000       0.40180000
   159  C          0.97696000       0.86875000       0.60793000
   160  C          0.02304000       0.13125000       0.39207000
   161  H          0.89170000       0.90210000       0.60270000
   162  H          0.10830000       0.09790000       0.39730000
   163  H         -0.01530000       0.81720000       0.56920000
   164  H          0.01530000       0.18280000       0.43080000
   165  H          0.06010000       0.93470000       0.62110000
   166  H          0.93990000       0.06530000       0.37890000
   167  C          0.47896000       0.51254000       0.65982000
   168  C          0.52104000       0.48746000       0.34018000
   169  H          0.43210000       0.55620000       0.63360000
   170  H          0.56790000       0.44380000       0.36640000
   171  H          0.46140000       0.42700000       0.63920000
   172  H          0.53860000       0.57300000       0.36080000
   173  H          0.58070000       0.54570000       0.66870000
   174  H          0.41930000       0.45430000       0.33130000
   175  C          0.17335000       0.97384000       0.82252000
   176  C          0.82665000       0.02616000       0.17748000
   177  C          0.14165000       0.91704000       0.86912000
   178  C          0.85835000       0.08296000       0.13088000
   179  C          0.01265000       0.90923000       0.89012000
   180  C         -0.01265000       0.09077000       0.10988000
   181  C          0.91195000       0.96323000       0.86222000
   182  C          0.08805000       0.03677000       0.13778000
   183  C          0.93575000       0.02033000       0.81462000
   184  C          0.06425000       0.97967000       0.18538000
   185  C          0.06715000       0.02213000       0.79532000
   186  C          0.93285000       0.97787000       0.20468000
   187  I          0.37222300      -0.00833700       0.79494200
   188  I          0.62777700       0.00833700       0.20505800
   189  F          0.24293000       0.86732000       0.89597130
   190  F          0.75707000       0.13268000       0.10402870
   191  I          0.96433700       0.81795200       0.95943200
   192  I          0.03566300       0.18204800       0.04056800
   193  F          0.78457000       0.95822000       0.88136120
   194  F          0.21543000       0.04178000       0.11863880
   195  I          0.77518700       0.09118200       0.77020200
   196  I          0.22481300       0.90881800       0.22979800
   197  F          0.09193000       0.07462000       0.74858120
   198  F          0.90807000       0.92538000       0.25141880
   199  C          0.82417000       0.34995000       0.65113000
   200  C          0.17583000       0.65005000       0.34887000
   201  H          0.86940000       0.28260000       0.65610000
   202  H          0.13060000       0.71740000       0.34390000
   203  H          0.72180000       0.32040000       0.63920000
   204  H          0.27820000       0.67960000       0.36080000
   205  H          0.84420000       0.41090000       0.68950000
   206  H          0.15580000       0.58910000       0.31050000
   207  C          0.88106000       0.40534000       0.60253000
   208  C          0.11894000       0.59466000       0.39747000
   209  O         -0.00905000       0.39624000       0.58442000
   210  O          0.00905000       0.60376000       0.41558000
   211  O          0.79004000       0.46763000       0.57965170
   212  O          0.20996000       0.53237000       0.42034830
   213  C          0.83496000       0.52835000       0.53283000
   214  C          0.16504000       0.47165000       0.46717000
   215  H          0.84790000       0.46870000       0.49730000
   216  H          0.15210000       0.53130000       0.50270000
   217  H          0.92530000       0.58690000       0.54900000
   218  H          0.07470000       0.41310000       0.45100000
   219  C          0.71807000       0.59267000       0.51503000
   220  C          0.28193000       0.40733000       0.48497000
   221  H          0.63000000       0.53310000       0.49810000
   222  H          0.37000000       0.46690000       0.50190000
   223  H          0.74440000       0.63660000       0.48460000
   224  H          0.25560000       0.36340000       0.51540000
   225  H          0.70450000       0.64920000       0.55090000
   226  H          0.29550000       0.35080000       0.44910000
