data_TIRNIS
_symmetry_space_group_name_H-M    'P1'
_symmetry_Int_Tables_number       1
loop_
_symmetry_equiv_pos_site_id
_symmetry_equiv_pos_as_xyz
1 x,y,z
_cell_length_a                   7.57931
_cell_length_b                   14.721119
_cell_length_c                   14.7402
_cell_angle_alpha                106.2603
_cell_angle_beta                 102.3103
_cell_angle_gamma                95.9753
loop_
_atom_site_label
_atom_site_type_symbol
_atom_site_fract_x
_atom_site_fract_y
_atom_site_fract_z
     1  C          0.25632000       0.69049100       0.54359100
     2  C          0.74368000       0.30950900       0.45640900
     3  O          0.37060180       0.69603900       0.63014800
     4  O          0.62939820       0.30396100       0.36985200
     5  H          0.40430000       0.75171600       0.66941600
     6  H          0.59570000       0.24828400       0.33058400
     7  C          0.20434190       0.77242100       0.52558100
     8  C          0.79565810       0.22757900       0.47441900
     9  O          0.37379190       0.42742900       0.59844100
    10  O          0.62620810       0.57257100       0.40155900
    11  O          0.18808170       0.33751700       0.43219100
    12  O          0.81191830       0.66248300       0.56780900
    13  H          0.25840000       0.35641900       0.49920000
    14  H          0.74160000       0.64358100       0.50080000
    15  C          0.08332000       0.76463100       0.43492110
    16  C          0.91668000       0.23536900       0.56507890
    17  O          0.01476160       0.33146700       0.25257800
    18  O         -0.01476160       0.66853300       0.74742200
    19  C          0.02652000       0.67639110       0.36605110
    20  C          0.97348000       0.32360890       0.63394890
    21  H          0.93980000       0.67191100       0.30511200
    22  H          0.06020000       0.32808900       0.69488800
    23  O          0.01982150       0.85764800       0.66569900
    24  O         -0.01982150       0.14235200       0.33430100
    25  H          0.00730000       0.80111600       0.62921600
    26  H         -0.00730000       0.19888400       0.37078400
    27  C          0.02752000       0.50092110       0.30339110
    28  C          0.97248000       0.49907890       0.69660890
    29  C          0.07152000       0.41967100       0.32356110
    30  C          0.92848000       0.58032900       0.67643890
    31  O          0.92768000       0.02679100       0.89679100
    32  O          0.07232000       0.97320900       0.10320900
    33  C          0.16682000       0.42249100       0.41824110
    34  C          0.83318000       0.57750900       0.58175890
    35  O          0.17472000       0.17058100       0.95748900
    36  O          0.82528000       0.82941900       0.04251100
    37  H          0.07840000       0.12791800       0.95691800
    38  H          0.92160000       0.87208200       0.04308200
    39  O          0.44887160       0.28023800       0.93048900
    40  O          0.55112840       0.71976200       0.06951100
    41  C          0.23772000       0.50950100       0.49251110
    42  C          0.76228000       0.49049900       0.50748890
    43  C          0.19476190       0.59726100       0.47363100
    44  C          0.80523810       0.40273900       0.52636900
    45  C          0.08202000       0.59164100       0.38100100
    46  C          0.91798000       0.40835900       0.61899900
    47  C          0.18012000       0.90895100       0.66469110
    48  C          0.81988000       0.09104900       0.33530890
    49  C          0.27862000       0.86937100       0.59920100
    50  C          0.72138000       0.13062900       0.40079900
    51  C          0.44712000       0.92149100       0.60084110
    52  C          0.55288000       0.07850900       0.39915890
    53  C          0.50162000       0.01386110       0.66277110
    54  C          0.49838000       0.98613890       0.33722890
    55  H          0.62120000       0.05051200       0.66411200
    56  H          0.37880000       0.94948800       0.33588800
    57  C          0.46142000       0.15646100       0.78998110
    58  C          0.53858000       0.84353900       0.21001890
    59  C          0.37992000       0.19033100       0.86378110
    60  C          0.62008000       0.80966900       0.13621890
    61  C          0.23332000       0.13270110       0.87802110
    62  C          0.76668000       0.86729890       0.12197890
    63  C          0.15072000       0.04233100       0.81001110
    64  C          0.84928000       0.95766900       0.18998890
    65  C          0.23902000       0.00256100       0.73320100
    66  C          0.76098000      -0.00256100       0.26679900
    67  C          0.40072000       0.05751100       0.72793110
    68  C          0.59928000       0.94248900       0.27206890
    69  C          0.01923000       0.85264130       0.41513160
    70  C         -0.01923000       0.14735870       0.58486840
    71  H          0.95270000       0.83931800       0.34920000
    72  H          0.04730000       0.16068200       0.65080000
    73  H          0.12340000       0.90301900       0.42311800
    74  H          0.87660000       0.09698100       0.57688200
    75  H          0.95260000       0.88120000       0.45920000
    76  H          0.04740000       0.11880000       0.54080000
    77  C          0.34713000       0.50339130       0.58255140
    78  C          0.65287000       0.49660870       0.41744860
    79  H          0.40530000       0.56181800       0.63381800
    80  H          0.59470000       0.43818200       0.36618200
    81  C          0.92467000       0.49527140       0.20083130
    82  C          0.07533000       0.50472860       0.79916870
    83  H          0.92370000       0.55861900       0.19861800
    84  H          0.07630000       0.44138100       0.80138200
    85  C          0.72606000       0.44662000       0.17522000
    86  C          0.27394000       0.55338000       0.82478000
    87  H          0.71170000       0.38361900       0.18441700
    88  H          0.28830000       0.61638100       0.81558300
    89  H          0.67360000       0.44020000       0.10820000
    90  H          0.32640000       0.55980000       0.89180000
    91  H          0.66350000       0.48730000       0.22030000
    92  H          0.33650000       0.51270000       0.77970000
    93  C          0.02257000       0.45163000       0.12273190
    94  C         -0.02257000       0.54837000       0.87726810
    95  H          0.96260000       0.47120000       0.06920000
    96  H          0.03740000       0.52880000       0.93080000
    97  H         -0.01050000       0.37830000       0.10730000
    98  H          0.01050000       0.62170000       0.89270000
    99  H          0.15650000       0.47320000       0.14120000
   100  H          0.84350000       0.52680000       0.85880000
   101  C          0.56582000       0.87614130       0.53741130
   102  C          0.43418000       0.12385870       0.46258870
   103  H          0.66560000       0.92400000       0.54100000
   104  H          0.33440000       0.07600000       0.45900000
   105  H          0.49410000       0.84940000       0.47100000
   106  H          0.50590000       0.15060000       0.52900000
   107  H          0.61360000       0.82610000       0.55970000
   108  H          0.38640000       0.17390000       0.44030000
   109  C         -0.01373000      -0.00346870       0.82339140
   110  C          0.01373000       0.00346870       0.17660860
   111  H          0.90670000       0.94271600       0.77391500
   112  H          0.09330000       0.05728400       0.22608500
   113  C          0.61092000       0.22147120       0.77189150
   114  C          0.38908000       0.77852880       0.22810850
   115  H          0.63630000       0.18431400       0.71251400
   116  H          0.36370000       0.81568600       0.28748600
   117  C          0.78703000       0.24891190       0.85232000
   118  C          0.21297000       0.75108810       0.14768000
   119  H          0.87950000       0.28480000       0.83420000
   120  H          0.12050000       0.71520000       0.16580000
   121  H          0.82750000       0.19180000       0.86170000
   122  H          0.17250000       0.80820000       0.13830000
   123  H          0.76560000       0.28760000       0.91190000
   124  H          0.23440000       0.71240000       0.08810000
   125  C          0.54603000       0.30891160       0.74972000
   126  C          0.45397000       0.69108840       0.25028000
   127  H          0.53680000       0.35430000       0.80890000
   128  H          0.46320000       0.64570000       0.19110000
   129  H          0.42800000       0.28960000       0.70360000
   130  H          0.57200000       0.71040000       0.29640000
   131  H          0.63220000       0.33810000       0.72250000
   132  H          0.36780000       0.66190000       0.27750000
   133  C          0.16123000       0.28349160       0.22512190
   134  C          0.83877000       0.71650840       0.77487810
   135  H          0.23640000       0.32520000       0.20520000
   136  H          0.76360000       0.67480000       0.79480000
   137  H          0.23940000       0.26120000       0.27920000
   138  H          0.76060000       0.73880000       0.72080000
   139  H          0.10440000       0.23720000       0.16720000
   140  H          0.89560000       0.76280000       0.83280000
   141  C          0.32423000       0.34685130       0.94204180
   142  C          0.67577000       0.65314870       0.05795820
   143  H          0.23650000       0.33540000       0.88080000
   144  H          0.76350000       0.66460000       0.11920000
   145  H          0.39120000       0.41130000       0.96310000
   146  H          0.60880000       0.58870000       0.03690000
   147  H          0.26130000       0.33850000      -0.01000000
   148  H          0.73870000       0.66150000       0.01000000
   149  O          0.55555190       0.84840100       0.78661900
   150  O          0.44444810       0.15159900       0.21338100
   151  O          0.61852000       0.95727100       0.93040100
   152  O          0.38148000       0.04272900       0.06959900
   153  H          0.73840000       0.97820000       0.90620000
   154  H          0.26160000       0.02180000       0.09380000
   155  C          0.51602000       0.88064120       0.86235130
   156  C          0.48398000       0.11935880       0.13764870
   157  C          0.35404000       0.84214190       0.89012000
   158  C          0.64596000       0.15785810       0.10988000
   159  H          0.27040000       0.79420000       0.83420000
   160  H          0.72960000       0.20580000       0.16580000
   161  H          0.39050000       0.80930000       0.93330000
   162  H          0.60950000       0.19070000       0.06670000
   163  H          0.29350000       0.89030000       0.92930000
   164  H          0.70650000       0.10970000       0.07070000
