data_TITFUY
_symmetry_space_group_name_H-M    'P1'
_symmetry_Int_Tables_number       1
loop_
_symmetry_equiv_pos_site_id
_symmetry_equiv_pos_as_xyz
1 x,y,z
_cell_length_a                   8.3802
_cell_length_b                   9.0303
_cell_length_c                   12.3443
_cell_angle_alpha                69.102
_cell_angle_beta                 73.422
_cell_angle_gamma                77.582
loop_
_atom_site_label
_atom_site_type_symbol
_atom_site_fract_x
_atom_site_fract_y
_atom_site_fract_z
     1  N          0.30493000       0.39852000       0.56586170
     2  N          0.69507000       0.60148000       0.43413830
     3  H          0.29230000       0.35930000       0.63820000
     4  H          0.70770000       0.64070000       0.36180000
     5  C          0.08753000       0.22382000       0.61368170
     6  C          0.91247000       0.77618000       0.38631830
     7  N          0.42253000       0.52823000       0.33018190
     8  N          0.57747000       0.47177000       0.66981810
     9  H          0.50540000       0.58030000       0.26830000
    10  H          0.49460000       0.41970000       0.73170000
    11  H          0.42230000       0.52830000       0.40030000
    12  H          0.57770000       0.47170000       0.59970000
    13  C          0.20933000       0.34142000       0.53064160
    14  C          0.79067000       0.65858000       0.46935840
    15  C          0.19813000       0.37052000       0.40995160
    16  C          0.80187000       0.62948000       0.59004840
    17  C          0.95917000       0.31013000       0.33762000
    18  C          0.04083000       0.68987000       0.66238000
    19  C          0.81617000       0.23693000       0.37363000
    20  C          0.18383000       0.76307000       0.62637000
    21  C          0.75857000       0.15023000       0.49003000
    22  C          0.24143000       0.84977000       0.50997000
    23  C          0.84567000       0.13863000       0.57182000
    24  C          0.15433000       0.86137000       0.42818000
    25  C          0.98717000       0.21112000       0.53706190
    26  C          0.01283000       0.78888000       0.46293810
    27  C          0.05213000       0.29832000       0.41743180
    28  C          0.94787000       0.70168000       0.58256820
    29  C          0.31713000       0.45142000       0.31555170
    30  C          0.68287000       0.54858000       0.68444830
    31  C          0.34723000       0.45033000       0.18869190
    32  C          0.65277000       0.54967000       0.81130810
    33  F          0.17206180       0.08124140       0.66614120
    34  F          0.82793820       0.91875860       0.33385880
    35  F         -0.00749180       0.27572160       0.70639110
    36  F          0.00749180       0.72427840       0.29360890
    37  F         -0.00092000       0.40082180       0.22263130
    38  F          0.00092000       0.59917820       0.77736870
    39  F          0.73168000       0.25342000       0.29204170
    40  F          0.26832000       0.74658000       0.70795830
    41  F          0.61968000       0.07962000       0.52222190
    42  F          0.38032000       0.92038000       0.47777810
    43  F          0.78958000       0.05452000       0.68679140
    44  F          0.21042000       0.94548000       0.31320860
    45  F          0.50672000       0.46952000       0.13115130
    46  F          0.49328000       0.53048000       0.86884870
    47  F          0.25202000       0.56807180       0.12597120
    48  F          0.74798000       0.43192820       0.87402880
    49  F          0.31982000       0.31365180       0.18436130
    50  F          0.68018000       0.68634820       0.81563870
    51  N          0.32943000       0.24753000       0.84532000
    52  N          0.67057000       0.75247000       0.15468000
    53  C          0.38314000       0.09775000       0.84763000
    54  C          0.61686000       0.90225000       0.15237000
    55  H          0.46510000       0.08010000       0.78300000
    56  H          0.53490000       0.91990000       0.21700000
    57  C          0.32695000       0.96796000       0.93763000
    58  C          0.67305000       0.03204000       0.06237000
    59  H          0.36990000       0.86490000       0.93550000
    60  H          0.63010000       0.13510000       0.06450000
    61  C          0.20685000      -0.00595000       0.02993000
    62  C          0.79315000       0.00595000       0.97007000
    63  H          0.16550000       0.90820000       0.09360000
    64  H          0.83450000       0.09180000       0.90640000
    65  C          0.14674000       0.14365000       0.03032000
    66  C          0.85326000       0.85635000       0.96968000
    67  H          0.06220000       0.16270000       0.09340000
    68  H          0.93780000       0.83730000       0.90660000
    69  C          0.21144000       0.26834000       0.93643000
    70  C          0.78856000       0.73166000       0.06357000
    71  H          0.16970000       0.37210000       0.93730000
    72  H          0.83030000       0.62790000       0.06270000
