data_TITXAZ
_symmetry_space_group_name_H-M    'P1'
_symmetry_Int_Tables_number       1
loop_
_symmetry_equiv_pos_site_id
_symmetry_equiv_pos_as_xyz
1 x,y,z
_cell_length_a                   6.453601
_cell_length_b                   8.37512
_cell_length_c                   16.16075
_cell_angle_alpha                83.1492
_cell_angle_beta                 86.8452
_cell_angle_gamma                83.3492
loop_
_atom_site_label
_atom_site_type_symbol
_atom_site_fract_x
_atom_site_fract_y
_atom_site_fract_z
     1  I          0.25210400       0.63573700       0.50054200
     2  I          0.74789600       0.36426300       0.49945800
     3  N          0.80046000       0.04904000       0.34132000
     4  N          0.19954000       0.95096000       0.65868000
     5  C          0.05396000       0.81095000       0.43122000
     6  C          0.94604000       0.18905000       0.56878000
     7  C          0.13456000       0.89545000       0.35963000
     8  C          0.86544000       0.10455000       0.64037000
     9  H          0.27570200       0.87233700       0.34095000
    10  H          0.72429800       0.12766300       0.65905000
    11  C          0.72647000       0.96545000       0.40963000
    12  C          0.27353000       0.03455000       0.59037000
    13  H          0.58388100      -0.01057400       0.42643100
    14  H          0.41611900       0.01057400       0.57356900
    15  C          0.00097000       0.01525000       0.31643000
    16  C         -0.00097000       0.98475000       0.68357000
    17  H          0.05333100       0.07493200       0.26756000
    18  H          0.94666900       0.92506800       0.73244000
    19  C          0.84707000       0.84575000       0.45703000
    20  C          0.15293000       0.15425000       0.54297000
    21  H          0.79015900       0.78902300       0.50586800
    22  H          0.20984100       0.21097700       0.49413200
    23  O          0.57085000       0.26514000       0.25244190
    24  O          0.42915000       0.73486000       0.74755810
    25  O          0.07075000       0.48834000       0.28265190
    26  O          0.92925000       0.51166000       0.71734810
    27  O          0.33255000       0.26694000       0.35799190
    28  O          0.66745000       0.73306000       0.64200810
    29  C          0.36786000       0.60675000       0.21662000
    30  C          0.63214000       0.39325000       0.78338000
    31  C          0.25976000       0.45205000       0.23532000
    32  C          0.74024000       0.54795000       0.76468000
    33  C          0.21276000       0.38765000       0.15402000
    34  C          0.78724000       0.61235000       0.84598000
    35  C          0.39506000       0.31685000       0.28822000
    36  C          0.60494000       0.68315000       0.71178000
    37  C          0.01716000       0.34255000       0.14213000
    38  C         -0.01716000       0.65745000       0.85787000
    39  H          0.90833600       0.35596000       0.18360500
    40  H          0.09166400       0.64404000       0.81639500
    41  C          0.36887000       0.37095000       0.09093000
    42  C          0.63113000       0.62905000       0.90907000
    43  H          0.50240300       0.40362000       0.09776200
    44  H          0.49759700       0.59638000       0.90223800
    45  C          0.56167000       0.62535000       0.24543000
    46  C          0.43833000       0.37465000       0.75457000
    47  H          0.63623500       0.53805700       0.27836100
    48  H          0.36376500       0.46194300       0.72163900
    49  C          0.26007000       0.73795000       0.16963000
    50  C          0.73993000       0.26205000       0.83037000
    51  H          0.12667600       0.72771600       0.14996800
    52  H          0.87332400       0.27228400       0.85003200
    53  C          0.33068000       0.30746000       0.01893000
    54  C          0.66932000       0.69254000       0.98107000
    55  H          0.43757100       0.29700500       0.97648600
    56  H          0.56242900       0.70299500       0.02351400
    57  C          0.64718000       0.77136000       0.22623000
    58  C          0.35282000       0.22864000       0.77377000
    59  H          0.78068400       0.78219600       0.24536300
    60  H          0.21931600       0.21780400       0.75463700
    61  C          0.13528000       0.25856000       0.00833000
    62  C          0.86472000       0.74144000      -0.00833000
    63  H          0.10952000       0.21248500       0.95942000
    64  H          0.89048000       0.78751500       0.04058000
    65  C          0.34619000       0.88335000       0.15133000
    66  C          0.65381000       0.11665000       0.84867000
    67  H          0.27147600       0.97168400       0.11920500
    68  H          0.72852400       0.02831600       0.88079500
    69  C          0.54029000       0.89996000       0.17973000
    70  C          0.45971000       0.10004000       0.82027000
    71  H          0.59899800      -0.00076900       0.16715100
    72  H          0.40100200       0.00076900       0.83284900
    73  C          0.97943000       0.27766000       0.06953000
    74  C          0.02057000       0.72234000       0.93047000
    75  H          0.84553300       0.24621000       0.06216800
    76  H          0.15446700       0.75379000       0.93783200
    77  H          0.09210000       0.43280000       0.33340000
    78  H          0.90790000       0.56720000       0.66660000
    79  H          0.64512000       0.18010000       0.29650000
    80  H          0.35488000       0.81990000       0.70350000
