data_TITZEB
_symmetry_space_group_name_H-M    'P1'
_symmetry_Int_Tables_number       1
loop_
_symmetry_equiv_pos_site_id
_symmetry_equiv_pos_as_xyz
1 x,y,z
_cell_length_a                   10.1722
_cell_length_b                   10.5722
_cell_length_c                   10.8962
_cell_angle_alpha                83.411
_cell_angle_beta                 75.791
_cell_angle_gamma                84.371
loop_
_atom_site_label
_atom_site_type_symbol
_atom_site_fract_x
_atom_site_fract_y
_atom_site_fract_z
     1  C          0.25352000       0.20122000       0.17812000
     2  C          0.74648000       0.79878000       0.82188000
     3  C          0.26342000       0.09062000       0.25712000
     4  C          0.73658000       0.90938000       0.74288000
     5  C          0.38692000       0.01172000       0.24092000
     6  C          0.61308000      -0.01172000       0.75908000
     7  C          0.49882000       0.04652000       0.15052000
     8  C          0.50118000       0.95348000       0.84948000
     9  C          0.49412000       0.16082000       0.07062000
    10  C          0.50588000       0.83918000       0.92938000
    11  C          0.61062000       0.20043000       0.97708000
    12  C          0.38938000       0.79957000       0.02292000
    13  C          0.60483000       0.30973000       0.89998000
    14  C          0.39517000       0.69027000       0.10002000
    15  C          0.48263000       0.38592000       0.91008000
    16  C          0.51737000       0.61408000       0.08992000
    17  C          0.36832000       0.35182000      -0.00192000
    18  C          0.63168000       0.64818000       0.00192000
    19  C          0.37042000       0.23862000       0.08202000
    20  C          0.62958000       0.76138000       0.91798000
    21  C          0.14582000       0.05102000       0.36042000
    22  C          0.85418000       0.94898000       0.63958000
    23  O          0.04602000       0.12351000       0.39901000
    24  O          0.95398000       0.87649000       0.60099000
    25  O          0.15762000       0.93289000       0.40932000
    26  O          0.84238000       0.06711000       0.59068000
    27  C          0.12712000       0.28922000       0.18862000
    28  C          0.87288000       0.71078000       0.81138000
    29  C          0.02632000       0.27462000       0.12752000
    30  C          0.97368000       0.72538000       0.87248000
    31  C          0.91718000       0.37012000       0.12882000
    32  C          0.08282000       0.62988000       0.87118000
    33  C          0.90958000       0.47572000       0.19122000
    34  C          0.09042000       0.52428000       0.80878000
    35  C          0.00862000       0.49302000       0.25732000
    36  C         -0.00862000       0.50698000       0.74268000
    37  C          0.00243000       0.60112000       0.32622000
    38  C         -0.00243000       0.39888000       0.67378000
    39  C          0.09713000       0.61312000       0.39132000
    40  C          0.90287000       0.38688000       0.60868000
    41  C          0.20563000       0.52082000       0.39082000
    42  C          0.79437000       0.47918000       0.60918000
    43  C          0.21682000       0.41602000       0.32502000
    44  C          0.78318000       0.58398000       0.67498000
    45  C          0.11912000       0.39892000       0.25662000
    46  C          0.88088000       0.60108000       0.74338000
    47  C          0.02412000       0.15752000       0.06482000
    48  C          0.97588000       0.84248000       0.93518000
    49  O          0.08812000       0.05722000       0.08502000
    50  O          0.91188000       0.94278000       0.91498000
    51  O          0.94388000       0.16882000       0.98608000
    52  O          0.05612000       0.83118000       0.01392000
    53  H          0.39100000       0.93000000       0.29600000
    54  H          0.60900000       0.07000000       0.70400000
    55  H          0.58500000      -0.01000000       0.14100000
    56  H          0.41500000       0.01000000       0.85900000
    57  H          0.69800000       0.14700000       0.96800000
    58  H          0.30200000       0.85300000       0.03200000
    59  H          0.68800000       0.33600000       0.83600000
    60  H          0.31200000       0.66400000       0.16400000
    61  H          0.47900000       0.46600000       0.85200000
    62  H          0.52100000       0.53400000       0.14800000
    63  H          0.28200000       0.40700000       0.00400000
    64  H          0.71800000       0.59300000      -0.00400000
    65  H          0.07640000       0.91070000       0.48430000
    66  H          0.92360000       0.08930000       0.51570000
    67  H          0.84500000       0.35900000       0.08300000
    68  H          0.15500000       0.64100000       0.91700000
    69  H          0.83300000       0.54200000       0.19000000
    70  H          0.16700000       0.45800000       0.81000000
    71  H          0.92700000       0.66900000       0.32600000
    72  H          0.07300000       0.33100000       0.67400000
    73  H          0.09000000       0.68900000       0.44000000
    74  H          0.91000000       0.31100000       0.56000000
    75  H          0.27500000       0.53200000       0.43900000
    76  H          0.72500000       0.46800000       0.56100000
    77  H          0.29500000       0.35100000       0.32500000
    78  H          0.70500000       0.64900000       0.67500000
    79  H          0.93160000       0.08040000       0.96260000
    80  H          0.06840000       0.91960000       0.03740000
    81  C          0.21954000       0.04623000       0.67924000
    82  C          0.78046000       0.95377000       0.32076000
    83  C          0.31373000       0.15002000       0.65423000
    84  C          0.68627000       0.84998000       0.34577000
    85  O          0.30782000       0.21632000       0.74692000
    86  O          0.69218000       0.78368000       0.25308000
    87  C          0.40343000       0.17483000       0.53693000
    88  C          0.59657000       0.82517000       0.46307000
    89  C          0.48823000       0.27353000       0.51563000
    90  C          0.51177000       0.72647000       0.48437000
    91  O          0.48822000       0.34422000       0.60442000
    92  O          0.51178000       0.65578000       0.39558000
    93  C          0.58464000       0.30554000       0.39133000
    94  C          0.41536000       0.69446000       0.60867000
    95  H          0.24900000       0.98400000       0.61400000
    96  H          0.75100000       0.01600000       0.38600000
    97  H          0.12600000       0.08600000       0.67700000
    98  H          0.87400000       0.91400000       0.32300000
    99  H          0.21800000       0.00100000       0.76500000
   100  H          0.78200000      -0.00100000       0.23500000
   101  H          0.40600000       0.12000000       0.46700000
   102  H          0.59400000       0.88000000       0.53300000
   103  H          0.38650000       0.30050000       0.69340000
   104  H          0.61350000       0.69950000       0.30660000
   105  H          0.57000000       0.25300000       0.32600000
   106  H          0.43000000       0.74700000       0.67400000
   107  H          0.67800000       0.28400000       0.40500000
   108  H          0.32200000       0.71600000       0.59500000
   109  H          0.57400000       0.39800000       0.36200000
   110  H          0.42600000       0.60200000       0.63800000
