data_TIVDUZ
_symmetry_space_group_name_H-M    'P1'
_symmetry_Int_Tables_number       1
loop_
_symmetry_equiv_pos_site_id
_symmetry_equiv_pos_as_xyz
1 x,y,z
_cell_length_a                   9.99225
_cell_length_b                   10.50411
_cell_length_c                   12.03938
_cell_angle_alpha                89.5376
_cell_angle_beta                 67.8685
_cell_angle_gamma                84.5976
loop_
_atom_site_label
_atom_site_type_symbol
_atom_site_fract_x
_atom_site_fract_y
_atom_site_fract_z
     1  Br         0.09503400       0.30804400       0.83980400
     2  Br         0.90496600       0.69195600       0.16019600
     3  Br         0.74944400       0.37847400       0.84110300
     4  Br         0.25055600       0.62152600       0.15889700
     5  O          0.20012000       0.31592000       0.05232000
     6  O          0.79988000       0.68408000       0.94768000
     7  O          0.45642000       0.33162000       0.04895190
     8  O          0.54358000       0.66838000       0.95104810
     9  O          0.64452000       0.37982000       0.63087180
    10  O          0.35548000       0.62018000       0.36912820
    11  O          0.38822000       0.32542000       0.63202000
    12  O          0.61178000       0.67458000       0.36798000
    13  C          0.28003000       0.32122000       0.84192000
    14  C          0.71997000       0.67878000       0.15808000
    15  C          0.30393000       0.32383000       0.94392000
    16  C          0.69607000       0.67617000       0.05608000
    17  C          0.45183000       0.33503000       0.94802000
    18  C          0.54817000       0.66497000       0.05198000
    19  C          0.56633000       0.35243000       0.83892000
    20  C          0.43367000       0.64757000       0.16108000
    21  C          0.54923000       0.35672000       0.73052000
    22  C          0.45077000       0.64328000       0.26948000
    23  C          0.40013000       0.33243000       0.72882000
    24  C          0.59987000       0.66757000       0.27118000
    25  H          0.26050000       0.31840000       0.10430000
    26  H          0.73950000       0.68160000       0.89570000
    27  Br         0.67802400       0.01773400       0.97881700
    28  Br         0.32197600       0.98226600       0.02118300
    29  O          0.01792000       0.02962000       0.21972000
    30  O          0.98208000       0.97038000       0.78028000
    31  O          0.76132000       0.03212000       0.19712000
    32  O          0.23868000       0.96788000       0.80288000
    33  C          0.01633000       0.01372000       0.11242000
    34  C          0.98367000      -0.01372000       0.88758000
    35  C          0.86823000       0.01823000       0.10452000
    36  C          0.13177000       0.98177000       0.89548000
    37  C          0.86283000       0.00653000       0.98688000
    38  C          0.13717000      -0.00653000       0.01312000
    39  H          0.91870000       0.04350000       0.29050000
    40  H          0.08130000       0.95650000       0.70950000
    41  H          0.08270000       0.95650000       0.70950000
    42  H          0.91730000       0.04350000       0.29050000
    43  N          0.03303000       0.38372000       0.34862000
    44  N          0.96697000       0.61628000       0.65138000
    45  N          0.01652000       0.22442000       0.53862000
    46  N          0.98348000       0.77558000       0.46138000
    47  N          0.67752000       0.33572000       0.40642000
    48  N          0.32248000       0.66428000       0.59358000
    49  N          0.79492000       0.06002000       0.43302000
    50  N          0.20508000       0.93998000       0.56698000
    51  C          0.12553000       0.38463000       0.40433000
    52  C          0.87447000       0.61537000       0.59567000
    53  C          0.11243000       0.31003000       0.50183000
    54  C          0.88757000       0.68997000       0.49817000
    55  C          0.92833000       0.30442000       0.39022000
    56  C          0.07167000       0.69558000       0.60978000
    57  C          0.81973000       0.32022000       0.33352000
    58  C          0.18027000       0.67978000       0.66648000
    59  C          0.85573000       0.32483000       0.21172000
    60  C          0.14427000       0.67517000       0.78828000
    61  C          0.74704000       0.33793000       0.16702000
    62  C          0.25296000       0.66207000       0.83298000
    63  C          0.60353000       0.34903000       0.24272000
    64  C          0.39647000       0.65097000       0.75728000
    65  C          0.57103000       0.35023000       0.36372000
    66  C          0.42897000       0.64977000       0.63628000
    67  C          0.92593000       0.21822000       0.48062000
    68  C          0.07407000       0.78178000       0.51938000
    69  C          0.82453000       0.11702000       0.51872000
    70  C          0.17547000       0.88298000       0.48128000
    71  C          0.76363000       0.08553000       0.63822000
    72  C          0.23637000       0.91447000       0.36178000
    73  C          0.66174000      -0.00073000       0.67003000
    74  C          0.33826000       0.00073000       0.32997000
    75  C          0.62604000       0.94437000       0.58293000
    76  C          0.37396000       0.05563000       0.41707000
    77  C          0.69733000       0.97407000       0.46543000
    78  C          0.30267000       0.02593000       0.53457000
    79  H          0.65040000       0.34330000       0.49030000
    80  H          0.34960000       0.65670000       0.50970000
    81  H          0.20220000       0.43820000       0.37600000
    82  H          0.79780000       0.56180000       0.62400000
    83  H          0.17400000       0.31980000       0.54430000
    84  H          0.82600000       0.68020000       0.45570000
    85  H          0.95480000       0.31850000       0.15910000
    86  H          0.04520000       0.68150000       0.84090000
    87  H          0.77090000       0.33970000       0.08280000
    88  H          0.22910000       0.66030000       0.91720000
    89  H          0.52850000       0.35550000       0.21200000
    90  H          0.47150000       0.64450000       0.78800000
    91  H          0.47250000       0.36150000       0.41780000
    92  H          0.52750000       0.63850000       0.58220000
    93  H          0.79170000       0.12360000       0.69630000
    94  H          0.20830000       0.87640000       0.30370000
    95  H          0.61680000       0.97730000       0.75150000
    96  H          0.38320000       0.02270000       0.24850000
    97  H          0.55250000       0.88730000       0.60390000
    98  H          0.44750000       0.11270000       0.39610000
    99  H          0.67740000       0.93200000       0.40460000
   100  H          0.32260000       0.06800000       0.59540000
