data_TIVDUZ01
_symmetry_space_group_name_H-M    'P1'
_symmetry_Int_Tables_number       1
loop_
_symmetry_equiv_pos_site_id
_symmetry_equiv_pos_as_xyz
1 x,y,z
_cell_length_a                   15.5462
_cell_length_b                   7.19221
_cell_length_c                   21.4633
_cell_angle_alpha                90.0
_cell_angle_beta                 102.054611
_cell_angle_gamma                90.0
loop_
_atom_site_label
_atom_site_type_symbol
_atom_site_fract_x
_atom_site_fract_y
_atom_site_fract_z
     1  Br         0.66981300       0.66445700       0.04679200
     2  Br         0.83018700       0.16445700       0.45320800
     3  Br         0.33018700       0.33554300       0.95320800
     4  Br         0.16981300       0.83554300       0.54679200
     5  Br         0.25449300       0.80766700       0.06860200
     6  Br         0.24550700       0.30766700       0.43139800
     7  Br         0.74550700       0.19233300       0.93139800
     8  Br         0.75449300       0.69233300       0.56860200
     9  O          0.50862000       0.78895000       0.94563850
    10  O         -0.00862000       0.28895000       0.55436150
    11  O          0.49138000       0.21105000       0.05436150
    12  O          0.00862000       0.71105000       0.44563850
    13  O          0.34842000       0.84464000       0.95490880
    14  O          0.15158000       0.34464000       0.54509120
    15  O          0.65158000       0.15536000       0.04509120
    16  O          0.84842000       0.65536000       0.45490880
    17  O          0.41328180       0.68033000       0.17231120
    18  O          0.08671820       0.18033000       0.32768880
    19  O          0.58671820       0.31967000       0.82768880
    20  O          0.91328180       0.81967000       0.67231120
    21  O          0.57742180       0.60954000       0.16022120
    22  O          0.92257820       0.10954000       0.33977880
    23  O          0.42257820       0.39046000       0.83977880
    24  O          0.07742180       0.89046000       0.66022120
    25  C          0.55212000       0.70384000       0.05293170
    26  C          0.94788000       0.20384000       0.44706830
    27  C          0.44788000       0.29616000       0.94706830
    28  C          0.05212000       0.79616000       0.55293170
    29  C          0.49092000       0.75925000       0.00240180
    30  C          0.00908000       0.25925000       0.49759820
    31  C          0.50908000       0.24075000      -0.00240180
    32  C         -0.00908000       0.74075000       0.50240180
    33  C          0.39652000       0.79324000       0.00588160
    34  C          0.10348000       0.29324000       0.49411840
    35  C          0.60348000       0.20676000      -0.00588160
    36  C          0.89652000       0.70676000       0.50588160
    37  C          0.37262000       0.76414000       0.06474170
    38  C          0.12738000       0.26414000       0.43525830
    39  C          0.62738000       0.23586000       0.93525830
    40  C          0.87262000       0.73586000       0.56474170
    41  C          0.43162000       0.70674000       0.11823160
    42  C          0.06838000       0.20674000       0.38176840
    43  C          0.56838000       0.29326000       0.88176840
    44  C          0.93162000       0.79326000       0.61823160
    45  C          0.52702000       0.66834000       0.11292160
    46  C          0.97298000       0.16834000       0.38707840
    47  C          0.47298000       0.33166000       0.88707840
    48  C          0.02702000       0.83166000       0.61292160
    49  H          0.46530000       0.80470000       0.92380000
    50  H          0.03470000       0.30470000       0.57620000
    51  H          0.53470000       0.19530000       0.07620000
    52  H          0.96530000       0.69530000       0.42380000
    53  Br         0.37997300       0.88638500       0.48032200
    54  Br         0.12002700       0.38638500       0.01967800
    55  Br         0.62002700       0.11361500       0.51967800
    56  Br         0.87997300       0.61361500       0.98032200
    57  O          0.49767170       0.27033000       0.39813110
    58  O          0.00232830       0.77033000       0.10186890
    59  O          0.50232830       0.72967000       0.60186890
    60  O         -0.00232830       0.22967000       0.89813110
    61  O          0.40236160       0.57893000       0.38572110
    62  O          0.09763840       0.07893000       0.11427890
    63  O          0.59763840       0.42107000       0.61427890
    64  O          0.90236160       0.92107000       0.88572110
    65  C          0.50142000       0.37184000       0.44840150
    66  C         -0.00142000       0.87184000       0.05159850
    67  C          0.49858000       0.62816000       0.55159850
    68  C          0.00142000       0.12816000       0.94840150
    69  C          0.44652000       0.55004000       0.43941150
    70  C          0.05348000       0.05004000       0.06058850
    71  C          0.55348000       0.44996000       0.56058850
    72  C          0.94652000       0.94996000       0.93941150
    73  C          0.44932000       0.66894000       0.49260150
    74  C          0.05068000       0.16894000       0.00739850
    75  C          0.55068000       0.33106000       0.50739850
    76  C          0.94932000       0.83106000       0.99260150
    77  H          0.45940000       0.30480000       0.34830000
    78  H          0.04060000       0.80480000       0.15170000
    79  H          0.54060000       0.69520000       0.65170000
    80  H          0.95940000       0.19520000       0.84830000
    81  H          0.54140000       0.69680000       0.65230000
    82  H          0.95860000       0.19680000       0.84770000
    83  H          0.45860000       0.30320000       0.34770000
    84  H          0.04140000       0.80320000       0.15230000
    85  N          0.68425190       0.29154000       0.28987150
    86  N          0.81574810       0.79154000       0.21012850
    87  N          0.31574810       0.70846000       0.71012850
    88  N          0.18425190       0.20846000       0.78987150
    89  N          0.56052000       0.10634000       0.20036150
    90  N          0.93948000       0.60634000       0.29963850
    91  N          0.43948000       0.89366000       0.79963850
    92  N          0.06052000       0.39366000       0.70036150
    93  N          0.52552000       0.64303000       0.28121140
    94  N          0.97448000       0.14303000       0.21878860
    95  N          0.47448000       0.35697000       0.71878860
    96  N          0.02552000       0.85697000       0.78121140
    97  N          0.40662000       0.30804000       0.27925130
    98  N          0.09338000       0.80804000       0.22074870
    99  N          0.59338000       0.69196000       0.72074870
   100  N          0.90662000       0.19196000       0.77925130
   101  C          0.70582000       0.14655000       0.25732000
   102  C          0.79418000       0.64655000       0.24268000
   103  C          0.29418000       0.85345000       0.74268000
   104  C          0.20582000       0.35345000       0.75732000
   105  C          0.64462000       0.06255000       0.21042000
   106  C          0.85538000       0.56255000       0.28958000
   107  C          0.35538000       0.93745000       0.78958000
   108  C          0.14462000       0.43745000       0.71042000
   109  C          0.59992000       0.34634000       0.27734150
   110  C          0.90008000       0.84634000       0.22265850
   111  C          0.40008000       0.65366000       0.72265850
   112  C          0.09992000       0.15366000       0.77734150
   113  C          0.58722000       0.52364000       0.30963150
   114  C          0.91278000       0.02364000       0.19036850
   115  C          0.41278000       0.47636000       0.69036850
   116  C          0.08722000       0.97636000       0.80963150
   117  C          0.64252000       0.57314000       0.36672160
   118  C          0.85748000       0.07314000       0.13327840
   119  C          0.35748000       0.42686000       0.63327840
   120  C          0.14252000       0.92686000       0.86672160
   121  C          0.63212000       0.74525000       0.39331180
   122  C          0.86788000       0.24525000       0.10668820
   123  C          0.36788000       0.25475000       0.60668820
   124  C          0.13212000       0.75475000       0.89331180
   125  C          0.56662000       0.86285000       0.36426180
   126  C          0.93338000       0.36285000       0.13573820
   127  C          0.43338000       0.13715000       0.63573820
   128  C          0.06662000       0.63715000       0.86426180
   129  C          0.51362000       0.80844000       0.30751170
   130  C          0.98638000       0.30844000       0.19248830
   131  C          0.48638000       0.19156000       0.69248830
   132  C          0.01362000       0.69156000       0.80751170
   133  C          0.53582000       0.24334000       0.23589150
   134  C          0.96418000       0.74334000       0.26410850
   135  C          0.46418000       0.75666000       0.76410850
   136  C          0.03582000       0.25666000       0.73589150
   137  C          0.43932000       0.26524000       0.22753140
   138  C          0.06068000       0.76524000       0.27246860
   139  C          0.56068000       0.73476000       0.77246860
   140  C          0.93932000       0.23476000       0.72753140
   141  C          0.38332000       0.23465000       0.16933160
   142  C          0.11668000       0.73465000       0.33066840
   143  C          0.61668000       0.76535000       0.83066840
   144  C          0.88332000       0.26535000       0.66933160
   145  C          0.29442000       0.25116000       0.16402000
   146  C          0.20558000       0.75116000       0.33598000
   147  C          0.70558000       0.74884000       0.83598000
   148  C          0.79442000       0.24884000       0.66402000
   149  C          0.26182000       0.29666000       0.21632000
   150  C          0.23818000       0.79666000       0.28368000
   151  C          0.73818000       0.70334000       0.78368000
   152  C          0.76182000       0.20334000       0.71632000
   153  C          0.31962000       0.32396000       0.27302000
   154  C          0.18038000       0.82396000       0.22698000
   155  C          0.68038000       0.67604000       0.72698000
   156  C          0.81962000       0.17604000       0.77302000
   157  H          0.49530000       0.62960000       0.25320000
   158  H          0.00470000       0.12960000       0.24680000
   159  H          0.50470000       0.37040000       0.74680000
   160  H         -0.00470000       0.87040000       0.75320000
   161  H          0.76440000       0.10070000       0.26710000
   162  H          0.73560000       0.60070000       0.23290000
   163  H          0.23560000       0.89930000       0.73290000
   164  H          0.26440000       0.39930000       0.76710000
   165  H          0.66340000       0.97080000       0.18430000
   166  H          0.83660000       0.47080000       0.31570000
   167  H          0.33660000       0.02920000       0.81570000
   168  H          0.16340000       0.52920000       0.68430000
   169  H          0.68730000       0.49020000       0.38700000
   170  H          0.81270000      -0.00980000       0.11300000
   171  H          0.31270000       0.50980000       0.61300000
   172  H          0.18730000       0.00980000       0.88700000
   173  H          0.66980000       0.78040000       0.43230000
   174  H          0.83020000       0.28040000       0.06770000
   175  H          0.33020000       0.21960000       0.56770000
   176  H          0.16980000       0.71960000       0.93230000
   177  H          0.55830000       0.98000000       0.38260000
   178  H          0.94170000       0.48000000       0.11740000
   179  H          0.44170000       0.02000000       0.61740000
   180  H          0.05830000       0.52000000       0.88260000
   181  H          0.46780000       0.88820000       0.28670000
   182  H          0.03220000       0.38820000       0.21330000
   183  H          0.53220000       0.11180000       0.71330000
   184  H          0.96780000       0.61180000       0.78670000
   185  H          0.40680000       0.20060000       0.13350000
   186  H          0.09320000       0.70060000       0.36650000
   187  H          0.59320000       0.79940000       0.86650000
   188  H          0.90680000       0.29940000       0.63350000
   189  H          0.25580000       0.23360000       0.12380000
   190  H          0.24420000       0.73360000       0.37620000
   191  H          0.74420000       0.76640000       0.87620000
   192  H          0.75580000       0.26640000       0.62380000
   193  H          0.20010000       0.30680000       0.21340000
   194  H          0.29990000       0.80680000       0.28660000
   195  H          0.79990000       0.69320000       0.78660000
   196  H          0.70010000       0.19320000       0.71340000
   197  H          0.29720000       0.35620000       0.30950000
   198  H          0.20280000       0.85620000       0.19050000
   199  H          0.70280000       0.64380000       0.69050000
   200  H          0.79720000       0.14380000       0.80950000
