data_TIWNET
_symmetry_space_group_name_H-M    'P1'
_symmetry_Int_Tables_number       1
loop_
_symmetry_equiv_pos_site_id
_symmetry_equiv_pos_as_xyz
1 x,y,z
_cell_length_a                   7.60148
_cell_length_b                   12.536613
_cell_length_c                   13.234014
_cell_angle_alpha                114.3682
_cell_angle_beta                 91.7032
_cell_angle_gamma                106.3602
loop_
_atom_site_label
_atom_site_type_symbol
_atom_site_fract_x
_atom_site_fract_y
_atom_site_fract_z
     1  C          0.60133000       0.12773170       0.04439150
     2  C          0.39867000       0.87226830       0.95560850
     3  C          0.68933000       0.03844180       0.01472160
     4  C          0.31067000       0.96155820       0.98527840
     5  C          0.40923000       0.08516180       0.02806160
     6  C          0.59077000       0.91483820       0.97193840
     7  F          0.87656160       0.07334110       0.02821110
     8  F          0.12343840       0.92665890       0.97178890
     9  F          0.31337160       0.16589110       0.05283100
    10  F          0.68662840       0.83410890       0.94716900
    11  I          0.75211917       0.31636411       0.10809810
    12  I          0.24788083       0.68363589       0.89190190
    13  C          0.02913000       0.65601820       0.27985160
    14  C          0.97087000       0.34398180       0.72014840
    15  H          0.05920000       0.62980000       0.33410000
    16  H          0.94080000       0.37020000       0.66590000
    17  C          0.07963000       0.78150820       0.31074160
    18  C          0.92037000       0.21849180       0.68925840
    19  H          0.14290000       0.83920000       0.38460000
    20  H          0.85710000       0.16080000       0.61540000
    21  C          0.03763000       0.82338820       0.23340160
    22  C          0.96237000       0.17661180       0.76659840
    23  C          0.94727000       0.73257820       0.12584160
    24  C          0.05273000       0.26742180       0.87415840
    25  H          0.91770000       0.75560000       0.06920000
    26  H          0.08230000       0.24440000       0.93080000
    27  C          0.90137000       0.60919820       0.10270170
    28  C          0.09863000       0.39080180       0.89729830
    29  H          0.83900000       0.54920000       0.02930000
    30  H          0.16100000       0.45080000       0.97070000
    31  C          0.07863000       0.95358820       0.25798170
    32  C          0.92137000       0.04641180       0.74201830
    33  H          0.05310000       0.97080000       0.19660000
    34  H          0.94690000       0.02920000       0.80340000
    35  C          0.14853000       0.05092180       0.35836160
    36  C          0.85147000       0.94907820       0.64163840
    37  H          0.18050000       0.03420000       0.41900000
    38  H          0.81950000       0.96580000       0.58100000
    39  C          0.18013000       0.18053170       0.38346160
    40  C          0.81987000       0.81946830       0.61653840
    41  C          0.14713000       0.21848180       0.30051160
    42  C          0.85287000       0.78151820       0.69948840
    43  H          0.10830000       0.15880000       0.22410000
    44  H          0.89170000       0.84120000       0.77590000
    45  C          0.16993000       0.34045180       0.32823160
    46  C          0.83007000       0.65954820       0.67176840
    47  H          0.14800000       0.36440000       0.27090000
    48  H          0.85200000       0.63560000       0.72910000
    49  C          0.22513000       0.42947170       0.43997160
    50  C          0.77487000       0.57052830       0.56002840
    51  C          0.26413000       0.39534180       0.52364160
    52  C          0.73587000       0.60465820       0.47635840
    53  H          0.30620000       0.45570000       0.59960000
    54  H          0.69380000       0.54430000       0.40040000
    55  C          0.24033000       0.27176180       0.49420160
    56  C          0.75967000       0.72823820       0.50579840
    57  H          0.26600000       0.24840000       0.55140000
    58  H          0.73400000       0.75160000       0.44860000
    59  C          0.29233000       0.64267170       0.57084150
    60  C          0.70767000       0.35732830       0.42915850
    61  H          0.41810000       0.65130000       0.60240000
    62  H          0.58190000       0.34870000       0.39760000
    63  H          0.20400000       0.62410000       0.61950000
    64  H          0.79600000       0.37590000       0.38050000
    65  C          0.29193000       0.75970180       0.56359160
    66  C          0.70807000       0.24029820       0.43640840
    67  H          0.16400000       0.74920000       0.53390000
    68  H          0.83600000       0.25080000       0.46610000
    69  H          0.37240000       0.77160000       0.50910000
    70  H          0.62760000       0.22840000       0.49090000
    71  C          0.35863000       0.87568170       0.67494160
    72  C          0.64137000       0.12431830       0.32505840
    73  H          0.48110000       0.88260000       0.70950000
    74  H          0.51890000       0.11740000       0.29050000
    75  H          0.26970000       0.86960000       0.72710000
    76  H          0.73030000       0.13040000       0.27290000
    77  C          0.37513000      -0.00928830       0.65728160
    78  C          0.62487000       0.00928830       0.34271840
    79  H          0.46160000      -0.00580000       0.60340000
    80  H          0.53840000       0.00580000       0.39660000
    81  H          0.25180000       0.98220000       0.62250000
    82  H          0.74820000       0.01780000       0.37750000
    83  C          0.44313000       0.11218170       0.76343160
    84  C          0.55687000       0.88781830       0.23656840
    85  H          0.56670000       0.12180000       0.79880000
    86  H          0.43330000       0.87820000       0.20120000
    87  H          0.35620000       0.11030000       0.81740000
    88  H          0.64380000       0.88970000       0.18260000
    89  C          0.45743000       0.22259180       0.73915150
    90  C          0.54257000       0.77740820       0.26084850
    91  H          0.52620000       0.21550000       0.67550000
    92  H          0.47380000       0.78450000       0.32450000
    93  H          0.33050000       0.21900000       0.71510000
    94  H          0.66950000       0.78100000       0.28490000
    95  C          0.55353000       0.34789180       0.83805160
    96  C          0.44647000       0.65210820       0.16194840
    97  H          0.48370000       0.35670000       0.90140000
    98  H          0.51630000       0.64330000       0.09860000
    99  H          0.68030000       0.35200000       0.86310000
   100  H          0.31970000       0.64800000       0.13690000
   101  C          0.56653000       0.45420190       0.80791190
   102  C          0.43347000       0.54579810       0.19208810
   103  H          0.63370000       0.44510000       0.74440000
   104  H          0.36630000       0.55490000       0.25560000
   105  H          0.63310000       0.53280000       0.87280000
   106  H          0.36690000       0.46720000       0.12720000
   107  H          0.44100000       0.45320000       0.78710000
   108  H          0.55900000       0.54680000       0.21290000
   109  N          0.93958000       0.56929850       0.17715140
   110  N          0.06042000       0.43070150       0.82284860
   111  O          0.23672000       0.54623120       0.45774110
   112  O          0.76328000       0.45376880       0.54225890
