data_TIWPIB
_symmetry_space_group_name_H-M    'P1'
_symmetry_Int_Tables_number       1
loop_
_symmetry_equiv_pos_site_id
_symmetry_equiv_pos_as_xyz
1 x,y,z
_cell_length_a                   5.45223
_cell_length_b                   10.88794
_cell_length_c                   25.964911
_cell_angle_alpha                90.0
_cell_angle_beta                 95.5065
_cell_angle_gamma                90.0
loop_
_atom_site_label
_atom_site_type_symbol
_atom_site_fract_x
_atom_site_fract_y
_atom_site_fract_z
     1  O          0.96058000       0.45725130       0.62391500
     2  O          0.03942000       0.95725130       0.87608500
     3  O          0.03942000       0.54274870       0.37608500
     4  O          0.96058000       0.04274870       0.12391500
     5  O          0.10132000       0.46569110       0.78314400
     6  O          0.89868000       0.96569110       0.71685600
     7  O          0.89868000       0.53430890       0.21685600
     8  O          0.10132000       0.03430890       0.28314400
     9  N          0.86597000       0.55126130       0.69578600
    10  N          0.13403000       0.05126130       0.80421400
    11  N          0.13403000       0.44873870       0.30421400
    12  N          0.86597000       0.94873870       0.19578600
    13  H          0.74570000       0.58831600       0.67716000
    14  H          0.25430000       0.08831600       0.82284000
    15  H          0.25430000       0.41168400       0.32284000
    16  H          0.74570000       0.91168400       0.17716000
    17  H          0.88370000       0.55281700       0.72984000
    18  H          0.11630000       0.05281700       0.77016000
    19  H          0.11630000       0.44718300       0.27016000
    20  H          0.88370000       0.94718300       0.22984000
    21  C          0.20233000       0.40218130       0.70051600
    22  C          0.79767000       0.90218130       0.79948400
    23  C          0.79767000       0.59781870       0.29948400
    24  C          0.20233000       0.09781870       0.20051600
    25  C          0.24733000       0.39695130       0.75467600
    26  C          0.75267000       0.89695130       0.74532400
    27  C          0.75267000       0.60304870       0.24532400
    28  C          0.24733000       0.10304870       0.25467600
    29  C          0.43723000       0.32267160       0.77682700
    30  C          0.56277000       0.82267160       0.72317300
    31  C          0.56277000       0.67732840       0.22317300
    32  C          0.43723000       0.17732840       0.27682700
    33  H          0.46630000       0.31770000       0.81260000
    34  H          0.53370000       0.81770000       0.68740000
    35  H          0.53370000       0.68230000       0.18740000
    36  H          0.46630000       0.18230000       0.31260000
    37  C          0.58103000       0.25700160       0.74643900
    38  C          0.41897000       0.75700160       0.75356100
    39  C          0.41897000       0.74299840       0.25356100
    40  C          0.58103000       0.24299840       0.24643900
    41  H          0.70710000       0.20800000       0.76190000
    42  H          0.29290000       0.70800000       0.73810000
    43  H          0.29290000       0.79200000       0.23810000
    44  H          0.70710000       0.29200000       0.26190000
    45  C          0.54223000       0.26240170       0.69369900
    46  C          0.45777000       0.76240170       0.80630100
    47  C          0.45777000       0.73759830       0.30630100
    48  C          0.54223000       0.23759830       0.19369900
    49  H          0.64220000       0.21810000       0.67330000
    50  H          0.35780000       0.71810000       0.82670000
    51  H          0.35780000       0.78190000       0.32670000
    52  H          0.64220000       0.28190000       0.17330000
    53  C          0.35253000       0.33441150       0.67086700
    54  C          0.64747000       0.83441150       0.82913300
    55  C          0.64747000       0.66558850       0.32913300
    56  C          0.35253000       0.16558850       0.17086700
    57  H          0.32510000       0.33740000       0.63500000
    58  H          0.67490000       0.83740000       0.86500000
    59  H          0.67490000       0.66260000       0.36500000
    60  H          0.32510000       0.16260000       0.13500000
    61  C         -0.00073000       0.47320140       0.67136600
    62  C          0.00073000       0.97320140       0.82863400
    63  C          0.00073000       0.52679860       0.32863400
    64  C         -0.00073000       0.02679860       0.17136600
    65  C          0.11064000       0.44615190       0.83777700
    66  C          0.88936000       0.94615190       0.66222300
    67  C          0.88936000       0.55384810       0.16222300
    68  C          0.11064000       0.05384810       0.33777700
    69  H          0.27350000       0.46540000       0.85410000
    70  H          0.72650000       0.96540000       0.64590000
    71  H          0.72650000       0.53460000       0.14590000
    72  H          0.27350000       0.03460000       0.35410000
    73  H          0.07420000       0.36100000       0.84500000
    74  H          0.92580000       0.86100000       0.65500000
    75  H          0.92580000       0.63900000       0.15500000
    76  H          0.07420000       0.13900000       0.34500000
    77  C          0.92396000       0.52812000       0.85790800
    78  C          0.07604000       0.02812000       0.64209200
    79  C          0.07604000       0.47188000       0.14209200
    80  C          0.92396000       0.97188000       0.35790800
    81  H          0.76500000       0.51120000       0.84010000
    82  H          0.23500000       0.01120000       0.65990000
    83  H          0.23500000       0.48880000       0.15990000
    84  H          0.76500000      -0.01120000       0.34010000
    85  H          0.96720000       0.61220000       0.85230000
    86  H          0.03280000       0.11220000       0.64770000
    87  H          0.03280000       0.38780000       0.14770000
    88  H          0.96720000       0.88780000       0.35230000
    89  H          0.91910000       0.51380000       0.89430000
    90  H          0.08090000       0.01380000       0.60570000
    91  H          0.08090000       0.48620000       0.10570000
    92  H          0.91910000       0.98620000       0.39430000
    93  O          0.47512000       0.66532120       0.61561500
    94  O          0.52488000       0.16532120       0.88438500
    95  O          0.52488000       0.33467880       0.38438500
    96  O          0.47512000       0.83467880       0.11561500
    97  O          0.56012000       0.50722120       0.56713400
    98  O          0.43988000       0.00722120       0.93286600
    99  O          0.43988000       0.49277880       0.43286600
   100  O          0.56012000      -0.00722120       0.06713400
   101  H          0.68130000       0.49820000       0.58887000
   102  H          0.31870000      -0.00180000       0.91113000
   103  H          0.31870000       0.50180000       0.41113000
   104  H          0.68130000       0.00180000       0.08887000
   105  O          0.73907000       0.93812130       0.53215500
   106  O          0.26093000       0.43812130       0.96784500
   107  O          0.26093000       0.06187870       0.46784500
   108  O          0.73907000       0.56187870       0.03215500
   109  O          0.54537000       0.86788130       0.45934500
   110  O          0.45463000       0.36788130       0.04065500
   111  O          0.45463000       0.13211870       0.54065500
   112  O          0.54537000       0.63211870       0.95934500
   113  H          0.45360000       0.92691800       0.46441000
   114  H          0.54640000       0.42691800       0.03559000
   115  H          0.54640000       0.07308200       0.53559000
   116  H          0.45360000       0.57308200       0.96441000
   117  C          0.43123000       0.60403140       0.57756500
   118  C          0.56877000       0.10403140       0.92243500
   119  C          0.56877000       0.39596860       0.42243500
   120  C          0.43123000       0.89596860       0.07756500
   121  C          0.71827000       0.86215150       0.49796600
   122  C          0.28173000       0.36215150       0.00203400
   123  C          0.28173000       0.13784850       0.50203400
   124  C          0.71827000       0.63784850      -0.00203400
   125  C          0.22343000       0.62512140       0.53635500
   126  C          0.77657000       0.12512140       0.96364500
   127  C          0.77657000       0.37487860       0.46364500
   128  C          0.22343000       0.87487860       0.03635500
   129  H          0.11460000       0.55450000       0.53550000
   130  H          0.88540000       0.05450000       0.96450000
   131  H          0.88540000       0.44550000       0.46450000
   132  H          0.11460000       0.94550000       0.03550000
   133  H          0.29120000       0.62910000       0.50320000
   134  H          0.70880000       0.12910000      -0.00320000
   135  H          0.70880000       0.37090000       0.49680000
   136  H          0.29120000       0.87090000       0.00320000
   137  C          0.88257000       0.75374150       0.49558600
   138  C          0.11743000       0.25374150       0.00441400
   139  C          0.11743000       0.24625850       0.50441400
   140  C          0.88257000       0.74625850      -0.00441400
   141  H          0.96920000       0.76020000       0.46470000
   142  H          0.03080000       0.26020000       0.03530000
   143  H          0.03080000       0.23980000       0.53530000
   144  H          0.96920000       0.73980000       0.96470000
   145  H          0.78180000       0.68030000       0.49220000
   146  H          0.21820000       0.18030000       0.00780000
   147  H          0.21820000       0.31970000       0.50780000
   148  H          0.78180000       0.81970000       0.99220000
   149  C          0.07133000       0.73909140       0.54223600
   150  C          0.92867000       0.23909140       0.95776400
   151  C          0.92867000       0.26090860       0.45776400
   152  C          0.07133000       0.76090860       0.04223600
   153  H          0.17810000       0.81050000       0.54530000
   154  H          0.82190000       0.31050000       0.95470000
   155  H          0.82190000       0.18950000       0.45470000
   156  H          0.17810000       0.68950000       0.04530000
   157  H         -0.01240000       0.73310000       0.57350000
   158  H          0.01240000       0.23310000       0.92650000
   159  H          0.01240000       0.26690000       0.42650000
   160  H         -0.01240000       0.76690000       0.07350000
