data_TIXFOZ
_symmetry_space_group_name_H-M    'P1'
_symmetry_Int_Tables_number       1
loop_
_symmetry_equiv_pos_site_id
_symmetry_equiv_pos_as_xyz
1 x,y,z
_cell_length_a                   7.49072
_cell_length_b                   9.56274
_cell_length_c                   11.24773
_cell_angle_alpha                74.2993
_cell_angle_beta                 83.9922
_cell_angle_gamma                79.5273
loop_
_atom_site_label
_atom_site_type_symbol
_atom_site_fract_x
_atom_site_fract_y
_atom_site_fract_z
     1  I          0.73811500       0.40726400       0.84283300
     2  I          0.26188500       0.59273600       0.15716700
     3  I          0.75831500       0.38383400       0.30699300
     4  I          0.24168500       0.61616600       0.69300700
     5  I          0.77025500       0.95881400       0.43166300
     6  I          0.22974500       0.04118600       0.56833700
     7  F          0.74575000       0.73843000       0.69653000
     8  F          0.25425000       0.26157000       0.30347000
     9  F          0.77435000       0.71894000       0.28323000
    10  F          0.22565000       0.28106000       0.71677000
    11  F          0.75065000       0.28874000       0.60263000
    12  F          0.24935000       0.71126000       0.39737000
    13  C          0.76118000       0.50136000       0.44005000
    14  C          0.23882000       0.49864000       0.55995000
    15  C          0.75078000       0.51106000       0.65385000
    16  C          0.24922000       0.48894000       0.34615000
    17  C          0.75418000       0.65886000       0.61325000
    18  C          0.24582000       0.34114000       0.38675000
    19  C          0.76628000       0.65076000       0.40405000
    20  C          0.23372000       0.34924000       0.59595000
    21  C          0.76338000       0.73406000       0.48955000
    22  C          0.23662000       0.26594000       0.51045000
    23  C          0.75418000       0.43436000       0.56445000
    24  C          0.24582000       0.56564000       0.43555000
    25  N          0.42587000       0.13355000       0.09534000
    26  N          0.57413000       0.86645000       0.90466000
    27  N          0.69607000       0.23335000       0.12244000
    28  N          0.30393000       0.76665000       0.87756000
    29  C          0.56818000       0.18756000       0.11145000
    30  C          0.43182000       0.81244000       0.88855000
    31  C          0.36788000       0.00026000       0.18035000
    32  C          0.63212000      -0.00026000       0.81965000
    33  H          0.38747900      -0.00563500       0.26728600
    34  H          0.61252100       0.00563500       0.73271400
    35  H          0.43347400       0.90982200       0.15885000
    36  H          0.56652600       0.09017800       0.84115000
    37  C          0.27899000       0.22416000       0.01695000
    38  C          0.72101000       0.77584000       0.98305000
    39  H          0.32541000       0.26143300       0.93053100
    40  H          0.67459000       0.73856700       0.06946900
    41  H          0.21843000       0.30817000       0.04965100
    42  H          0.78157000       0.69183000       0.95034900
    43  C          0.14928000       0.11306000       0.02616000
    44  C          0.85072000       0.88694000       0.97384000
    45  H          0.02289200       0.16336900       0.01079100
    46  H          0.97710800       0.83663100      -0.01079100
    47  H          0.18908200       0.05141400       0.96723500
    48  H          0.81091800       0.94858600       0.03276500
    49  C          0.16618000       0.02277000       0.15896000
    50  C          0.83382000       0.97723000       0.84104000
    51  H          0.12441900       0.92706300       0.17092100
    52  H          0.87558100       0.07293700       0.82907900
    53  H          0.09310400       0.07603400       0.21638600
    54  H          0.90689600       0.92396600       0.78361400
