data_TIXGEQ
_symmetry_space_group_name_H-M    'P1'
_symmetry_Int_Tables_number       1
loop_
_symmetry_equiv_pos_site_id
_symmetry_equiv_pos_as_xyz
1 x,y,z
_cell_length_a                   6.392501
_cell_length_b                   8.773501
_cell_length_c                   18.59842
_cell_angle_alpha                77.91901
_cell_angle_beta                 81.54101
_cell_angle_gamma                85.11501
loop_
_atom_site_label
_atom_site_type_symbol
_atom_site_fract_x
_atom_site_fract_y
_atom_site_fract_z
     1  I          0.16615200       0.54658200       0.64514200
     2  I          0.83384800       0.45341800       0.35485800
     3  I          0.81511200       0.95091200       0.34241200
     4  I          0.18488800       0.04908800       0.65758800
     5  F          0.38633000       0.77902000       0.35436900
     6  F          0.61367000       0.22098000       0.64563100
     7  F          0.83633000       0.87872000       0.51766100
     8  F          0.16367000       0.12128000       0.48233900
     9  F          0.13983000       0.62202000       0.46935100
    10  F          0.86017000       0.37798000       0.53064900
    11  F          0.59303000       0.71652000       0.63196100
    12  F          0.40697000       0.28348000       0.36803900
    13  C          0.61934000       0.83343000       0.43245150
    14  C          0.38066000       0.16657000       0.56754850
    15  C          0.35774000       0.66633000       0.55419150
    16  C          0.64226000       0.33367000       0.44580850
    17  C          0.43974000       0.76623000       0.42297150
    18  C          0.56026000       0.23377000       0.57702850
    19  C          0.66544000       0.81543000       0.50427160
    20  C          0.33456000       0.18457000       0.49572840
    21  C          0.31104000       0.68433000       0.48220150
    22  C          0.68896000       0.31567000       0.51779850
    23  C          0.53844000       0.73243000       0.56392150
    24  C          0.46156000       0.26757000       0.43607850
    25  O          0.11293000       0.09362000       0.21722110
    26  O          0.88707000       0.90638000       0.78277890
    27  N          0.41123000       0.29613000       0.13127120
    28  N          0.58877000       0.70387000       0.86872880
    29  N          0.70733000       0.44283000       0.05203130
    30  N          0.29267000       0.55717000       0.94796870
    31  C          0.57084000       0.37153000       0.08705140
    32  C          0.42916000       0.62847000       0.91294860
    33  C          0.24784000       0.24043000       0.09566150
    34  C          0.75216000       0.75957000       0.90433850
    35  H          0.30320200       0.14593300       0.07629500
    36  H          0.69679800       0.85406700       0.92370500
    37  H          0.20792900       0.32213800       0.05373200
    38  H          0.79207100       0.67786200       0.94626800
    39  C          0.46494000       0.18893000       0.19868140
    40  C          0.53506000       0.81107000       0.80131860
    41  H          0.56584900       0.23616800       0.22199200
    42  H          0.43415100       0.76383200       0.77800800
    43  H          0.53173800       0.08996200       0.18630400
    44  H          0.46826200       0.91003800       0.81369600
    45  C          0.05644000       0.20323000       0.15368150
    46  C          0.94356000       0.79677000       0.84631850
    47  H         -0.00609900       0.30051600       0.16902100
    48  H          0.00609900       0.69948400       0.83097900
    49  H          0.94815500       0.15963300       0.13195100
    50  H          0.05184500       0.84036700       0.86804900
    51  C          0.26154000       0.15753000       0.25156150
    52  C          0.73846000       0.84247000       0.74843850
    53  H          0.29290800       0.08343400       0.29719300
    54  H          0.70709200       0.91656600       0.70280700
    55  H          0.19967400       0.25609300       0.26572100
    56  H          0.80032600       0.74390700       0.73427900
    57  O          0.93307000       0.40072000       0.78598110
    58  O          0.06693000       0.59928000       0.21401890
    59  N          0.82577000       0.19063000       0.91980120
    60  N          0.17423000       0.80937000       0.08019880
    61  N          0.71157000       0.03763000       0.04624130
    62  N          0.28843000       0.96237000       0.95375870
    63  C          0.76316000       0.11163000       0.98812150
    64  C          0.23684000       0.88837000       0.01187850
    65  C          0.09334000       0.32863000       0.83048150
    66  C          0.90666000       0.67137000       0.16951850
    67  H          0.21073100       0.39927200       0.82310700
    68  H          0.78926900       0.60072800       0.17689300
    69  H          0.15093600       0.23073100       0.81468100
    70  H          0.84906400       0.76926900       0.18531900
    71  C          0.66106000       0.25773000       0.87296150
    72  C          0.33894000       0.74227000       0.12703850
    73  H          0.59166800       0.35269900       0.88885400
    74  H          0.40833200       0.64730100       0.11114600
    75  H          0.55197000       0.18143600       0.87757700
    76  H          0.44803000       0.81856400       0.12242300
    77  C          0.00394000       0.29313000       0.91132150
    78  C         -0.00394000       0.70687000       0.08867850
    79  H          0.11442200       0.23996300       0.94139400
    80  H          0.88557800       0.76003700       0.05860600
    81  H          0.95333200       0.39095200       0.92842300
    82  H          0.04666800       0.60904800       0.07157700
    83  C          0.76566000       0.29853000       0.79279150
    84  C          0.23434000       0.70147000       0.20720850
    85  H          0.82305700       0.20170600       0.77586800
    86  H          0.17694300       0.79829400       0.22413200
    87  H          0.65869200       0.34956000       0.76073600
    88  H          0.34130800       0.65044000       0.23926400
