data_TMABCA
_symmetry_space_group_name_H-M    'P1'
_symmetry_Int_Tables_number       1
loop_
_symmetry_equiv_pos_site_id
_symmetry_equiv_pos_as_xyz
1 x,y,z
_cell_length_a                   16.32015
_cell_length_b                   6.5681
_cell_length_c                   8.8111
_cell_angle_alpha                90.0
_cell_angle_beta                 111.913
_cell_angle_gamma                90.0
loop_
_atom_site_label
_atom_site_type_symbol
_atom_site_fract_x
_atom_site_fract_y
_atom_site_fract_z
     1  Cl         0.93617000       0.00000000       0.29210000
     2  Cl         0.43617000       0.50000000       0.29210000
     3  Cl         0.06383000       0.00000000       0.70790000
     4  Cl         0.56383000       0.50000000       0.70790000
     5  Cl         0.79820000       0.00000000       0.92833000
     6  Cl         0.29820000       0.50000000       0.92833000
     7  Cl         0.20180000       0.00000000       0.07167000
     8  Cl         0.70180000       0.50000000       0.07167000
     9  C          0.96910000       0.00000000       0.12885000
    10  C          0.46910000       0.50000000       0.12885000
    11  C          0.03090000       0.00000000       0.87115000
    12  C          0.53090000       0.50000000       0.87115000
    13  C          0.06435000       0.00000000       0.16949000
    14  C          0.56435000       0.50000000       0.16949000
    15  C          0.93565000       0.00000000       0.83051000
    16  C          0.43565000       0.50000000       0.83051000
    17  C          0.91006000       0.00000000       0.97325000
    18  C          0.41006000       0.50000000       0.97325000
    19  C          0.08994000       0.00000000       0.02675000
    20  C          0.58994000       0.50000000       0.02675000
    21  O          0.11838000       0.00000000       0.31101000
    22  O          0.61838000       0.50000000       0.31101000
    23  O          0.88162000       0.00000000       0.68899000
    24  O          0.38162000       0.50000000       0.68899000
    25  C          0.47692000       0.00000000       0.13648000
    26  C          0.97692000       0.50000000       0.13648000
    27  C          0.52308000       0.00000000       0.86352000
    28  C          0.02308000       0.50000000       0.86352000
    29  C          0.56667000       0.00000000       0.15817000
    30  C          0.06667000       0.50000000       0.15817000
    31  C          0.43333000       0.00000000       0.84183000
    32  C          0.93333000       0.50000000       0.84183000
    33  C          0.41249000       0.00000000       0.98220000
    34  C          0.91249000       0.50000000       0.98220000
    35  C          0.58751000       0.00000000       0.01780000
    36  C          0.08751000       0.50000000       0.01780000
    37  C          0.61013000       0.00000000       0.45734000
    38  C          0.11013000       0.50000000       0.45734000
    39  C          0.38987000       0.00000000       0.54266000
    40  C          0.88987000       0.50000000       0.54266000
    41  C          0.72478000       0.00000000       0.33261000
    42  C          0.22478000       0.50000000       0.33261000
    43  C          0.27522000       0.00000000       0.66739000
    44  C          0.77522000       0.50000000       0.66739000
    45  H          0.45872000       0.00000000       0.24254000
    46  H          0.95872000       0.50000000       0.24254000
    47  H          0.54128000       0.00000000       0.75746000
    48  H          0.04128000       0.50000000       0.75746000
    49  H          0.34427000       0.00000000       0.97091000
    50  H          0.84427000       0.50000000       0.97091000
    51  H          0.65573000       0.00000000       0.02909000
    52  H          0.15573000       0.50000000       0.02909000
    53  H          0.67066000       0.00000000       0.56387000
    54  H          0.17066000       0.50000000       0.56387000
    55  H          0.32934000      -0.00000000       0.43613000
    56  H          0.82934000       0.50000000       0.43613000
    57  H          0.76474000       0.00000000       0.46187000
    58  H          0.26474000       0.50000000       0.46187000
    59  H          0.23526000       0.00000000       0.53813000
    60  H          0.73526000       0.50000000       0.53813000
    61  H          0.57215000       0.13426000       0.45841000
    62  H          0.07215000       0.63426000       0.45841000
    63  H          0.42785000       0.13426000       0.54159000
    64  H          0.92785000       0.63426000       0.54159000
    65  H          0.42785000       0.86574000       0.54159000
    66  H          0.92785000       0.36574000       0.54159000
    67  H          0.57215000       0.86574000       0.45841000
    68  H          0.07215000       0.36574000       0.45841000
    69  H          0.73922000       0.13426000       0.27651000
    70  H          0.23922000       0.63426000       0.27651000
    71  H          0.26078000       0.13426000       0.72349000
    72  H          0.76078000       0.63426000       0.72349000
    73  H          0.26078000       0.86574000       0.72349000
    74  H          0.76078000       0.36574000       0.72349000
    75  H          0.73922000       0.86574000       0.27651000
    76  H          0.23922000       0.36574000       0.27651000
    77  N          0.63087000       0.00000000       0.31001000
    78  N          0.13087000       0.50000000       0.31001000
    79  N          0.36913000       0.00000000       0.68999000
    80  N          0.86913000       0.50000000       0.68999000
