data_TMPASD
_symmetry_space_group_name_H-M    'P1'
_symmetry_Int_Tables_number       1
loop_
_symmetry_equiv_pos_site_id
_symmetry_equiv_pos_as_xyz
1 x,y,z
_cell_length_a                   6.3392
_cell_length_b                   19.1634
_cell_length_c                   12.71487
_cell_angle_alpha                90.0
_cell_angle_beta                 120.113
_cell_angle_gamma                90.0
loop_
_atom_site_label
_atom_site_type_symbol
_atom_site_fract_x
_atom_site_fract_y
_atom_site_fract_z
     1  C          0.02170000       0.20624000       0.58245000
     2  C         -0.02170000       0.70624000       0.91755000
     3  C         -0.02170000       0.79376000       0.41755000
     4  C          0.02170000       0.29376000       0.08245000
     5  C          0.77040000       0.31219000       0.50131000
     6  C          0.22960000       0.81219000      -0.00131000
     7  C          0.22960000       0.68781000       0.49869000
     8  C          0.77040000       0.18781000       0.00131000
     9  C          0.21450000       0.32133000       0.61690000
    10  C          0.78550000       0.82133000       0.88310000
    11  C          0.78550000       0.67867000       0.38310000
    12  C          0.21450000       0.17867000       0.11690000
    13  C          0.81600000       0.16744000       0.55586000
    14  C          0.18400000       0.66744000       0.94414000
    15  C          0.18400000       0.83256000       0.44414000
    16  C          0.81600000       0.33256000       0.05586000
    17  C          0.30840000       0.95388000       0.73053000
    18  C          0.69160000       0.45388000       0.76947000
    19  C          0.69160000       0.04612000       0.26947000
    20  C          0.30840000       0.54612000       0.23053000
    21  C          0.86680000       0.95195000       0.63742000
    22  C          0.13320000       0.45195000       0.86258000
    23  C          0.13320000       0.04805000       0.36258000
    24  C          0.86680000       0.54805000       0.13742000
    25  C          0.83740000       0.09849000       0.59400000
    26  C          0.16260000       0.59849000       0.90600000
    27  C          0.16260000       0.90151000       0.40600000
    28  C          0.83740000       0.40151000       0.09400000
    29  C          0.06260000       0.06593000       0.65744000
    30  C          0.93740000       0.56593000       0.84256000
    31  C          0.93740000       0.93407000       0.34256000
    32  C          0.06260000       0.43407000       0.15744000
    33  C          0.26840000       0.10492000       0.68400000
    34  C          0.73160000       0.60492000       0.81600000
    35  C          0.73160000       0.89508000       0.31600000
    36  C          0.26840000       0.39508000       0.18400000
    37  C          0.24820000       0.17373000       0.64670000
    38  C          0.75180000       0.67373000       0.85330000
    39  C          0.75180000       0.82627000       0.35330000
    40  C          0.24820000       0.32627000       0.14670000
    41  H          0.77900000       0.35770000       0.47230000
    42  H          0.22100000       0.85770000       0.02770000
    43  H          0.22100000       0.64230000       0.52770000
    44  H          0.77900000       0.14230000       0.97230000
    45  H          0.74000000       0.31730000       0.57180000
    46  H          0.26000000       0.81730000       0.92820000
    47  H          0.26000000       0.68270000       0.42820000
    48  H          0.74000000       0.18270000       0.07180000
    49  H          0.63300000       0.28730000       0.43370000
    50  H          0.36700000       0.78730000       0.06630000
    51  H          0.36700000       0.71270000       0.56630000
    52  H          0.63300000       0.21270000       0.93370000
    53  H          0.36500000       0.30510000       0.61620000
    54  H          0.63500000       0.80510000       0.88380000
    55  H          0.63500000       0.69490000       0.38380000
    56  H          0.36500000       0.19490000       0.11620000
    57  H          0.24100000       0.32190000       0.70220000
    58  H          0.75900000       0.82190000       0.79780000
    59  H          0.75900000       0.67810000       0.29780000
    60  H          0.24100000       0.17810000       0.20220000
    61  H          0.18300000       0.36580000       0.58070000
    62  H          0.81700000       0.86580000       0.91930000
    63  H          0.81700000       0.63420000       0.41930000
    64  H          0.18300000       0.13420000       0.08070000
    65  H          0.66300000       0.18510000       0.51250000
    66  H          0.33700000       0.68510000      -0.01250000
    67  H          0.33700000       0.81490000       0.48750000
    68  H          0.66300000       0.31490000       0.01250000
    69  H          0.30500000       0.91360000       0.76350000
    70  H          0.69500000       0.41360000       0.73650000
    71  H          0.69500000       0.08640000       0.23650000
    72  H          0.30500000       0.58640000       0.26350000
    73  H          0.32600000       0.95150000       0.65600000
    74  H          0.67400000       0.45150000       0.84400000
    75  H          0.67400000       0.04850000       0.34400000
    76  H          0.32600000       0.54850000       0.15600000
    77  H          0.45000000       0.98200000       0.79540000
    78  H          0.55000000       0.48200000       0.70460000
    79  H          0.55000000       0.01800000       0.20460000
    80  H          0.45000000       0.51800000       0.29540000
    81  H          0.82200000       0.94500000       0.55290000
    82  H          0.17800000       0.44500000       0.94710000
    83  H          0.17800000       0.05500000       0.44710000
    84  H          0.82200000       0.55500000       0.05290000
    85  H          0.91000000       0.90480000       0.67760000
    86  H          0.09000000       0.40480000       0.82240000
    87  H          0.09000000       0.09520000       0.32240000
    88  H          0.91000000       0.59520000       0.17760000
    89  H          0.72800000       0.97270000       0.64350000
    90  H          0.27200000       0.47270000       0.85650000
    91  H          0.27200000       0.02730000       0.35650000
    92  H          0.72800000       0.52730000       0.14350000
    93  H          0.69500000       0.07560000       0.57550000
    94  H          0.30500000       0.57560000       0.92450000
    95  H          0.30500000       0.92440000       0.42450000
    96  H          0.69500000       0.42440000       0.07550000
    97  H          0.43500000       0.08660000       0.73160000
    98  H          0.56500000       0.58660000       0.76840000
    99  H          0.56500000       0.91340000       0.26840000
   100  H          0.43500000       0.41340000       0.23160000
   101  H          0.38800000       0.19530000       0.66630000
   102  H          0.61200000       0.69530000       0.83370000
   103  H          0.61200000       0.80470000       0.33370000
   104  H          0.38800000       0.30470000       0.16630000
   105  N          0.00370000       0.27643000       0.54052000
   106  N         -0.00370000       0.77643000       0.95948000
   107  N         -0.00370000       0.72357000       0.45948000
   108  N          0.00370000       0.22357000       0.04052000
   109  N          0.08390000      -0.00377000       0.70206000
   110  N          0.91610000       0.49623000       0.79794000
   111  N          0.91610000       0.00377000       0.29794000
   112  N          0.08390000       0.50377000       0.20206000
   113  O          0.79590000       0.22512000       0.29236000
   114  O          0.20410000       0.72512000       0.20764000
   115  O          0.20410000       0.77488000       0.70764000
   116  O          0.79590000       0.27488000       0.79236000
   117  O          0.23330000       0.22774000       0.40438000
   118  O          0.76670000       0.72774000       0.09562000
   119  O          0.76670000       0.77226000       0.59562000
   120  O          0.23330000       0.27226000       0.90438000
   121  S          0.01167000       0.26674000       0.35908000
   122  S         -0.01167000       0.76674000       0.14092000
   123  S         -0.01167000       0.73326000       0.64092000
   124  S          0.01167000       0.23326000       0.85908000
   125  O          0.30830000       0.06603000       0.93614000
   126  O          0.69170000       0.56603000       0.56386000
   127  O          0.69170000       0.93397000       0.06386000
   128  O          0.30830000       0.43397000       0.43614000
   129  O          0.88540000       0.03497000       0.85696000
   130  O          0.11460000       0.53497000       0.64304000
   131  O          0.11460000       0.96503000       0.14304000
   132  O          0.88540000       0.46503000       0.35696000
   133  S          0.12800000       0.01191000       0.89437000
   134  S          0.87200000       0.51191000       0.60563000
   135  S          0.87200000       0.98809000       0.10563000
   136  S          0.12800000       0.48809000       0.39437000
