data_TODCEX
_symmetry_space_group_name_H-M    'P1'
_symmetry_Int_Tables_number       1
loop_
_symmetry_equiv_pos_site_id
_symmetry_equiv_pos_as_xyz
1 x,y,z
_cell_length_a                   7.33321
_cell_length_b                   13.9372
_cell_length_c                   15.6112
_cell_angle_alpha                65.1335
_cell_angle_beta                 82.7586
_cell_angle_gamma                83.3306
loop_
_atom_site_label
_atom_site_type_symbol
_atom_site_fract_x
_atom_site_fract_y
_atom_site_fract_z
     1  Br         0.14412300       0.87804800       0.35275200
     2  Br         0.85587700       0.12195200       0.64724800
     3  N          0.56613000       0.15330180       0.09188160
     4  N          0.43387000       0.84669820       0.90811840
     5  H          0.62940000       0.19320000       0.03520000
     6  H          0.37060000       0.80680000       0.96480000
     7  H          0.47940000       0.16320000       0.11320000
     8  H          0.52060000       0.83680000       0.88680000
     9  C          0.69893000       0.09325170       0.15220150
    10  C          0.30107000       0.90674830       0.84779850
    11  C          0.64963000       0.03234170       0.24798150
    12  C          0.35037000       0.96765830       0.75201850
    13  H          0.52710000       0.03420000       0.27180000
    14  H          0.47290000       0.96580000       0.72820000
    15  C          0.78143000       0.96932830       0.30765150
    16  C          0.21857000       0.03067170       0.69234850
    17  H          0.74820000       0.92950000       0.37140000
    18  H          0.25180000       0.07050000       0.62860000
    19  C          0.96343000       0.96618840       0.27148140
    20  C          0.03657000       0.03381160       0.72851860
    21  C          0.01573000       0.02652170       0.17716150
    22  C          0.98427000       0.97347830       0.82283850
    23  H          0.13840000       0.02440000       0.15360000
    24  H          0.86160000       0.97560000       0.84640000
    25  C          0.88343000       0.09000180       0.11834150
    26  C          0.11657000       0.90999820       0.88165850
    27  H          0.91820000       0.13130000       0.05500000
    28  H          0.08180000       0.86870000       0.94500000
    29  Br         0.78587300       0.65913200       0.02589200
    30  Br         0.21412700       0.34086800       0.97410800
    31  N          0.92733000       0.36268180       0.42999150
    32  N          0.07267000       0.63731820       0.57000850
    33  H          0.84450000       0.35520000       0.47020000
    34  H          0.15550000       0.64480000       0.52980000
    35  H          0.02550000       0.33920000       0.44320000
    36  H          0.97450000       0.66080000       0.55680000
    37  C          0.89433000       0.42954170       0.33793150
    38  C          0.10567000       0.57045830       0.66206850
    39  C          0.03703000       0.45165170       0.26576150
    40  C          0.96297000       0.54834830       0.73423850
    41  H          0.15510000       0.42110000       0.28000000
    42  H          0.84490000       0.57890000       0.72000000
    43  C          0.00483000       0.51847170       0.17331150
    44  C         -0.00483000       0.48152830       0.82668850
    45  H          0.10050000       0.53270000       0.12550000
    46  H          0.89950000       0.46730000       0.87450000
    47  C          0.82843000       0.56402160       0.15251150
    48  C          0.17157000       0.43597840       0.84748850
    49  C          0.68463000       0.54361170       0.22297150
    50  C          0.31537000       0.45638830       0.77702850
    51  H          0.56710000       0.57510000       0.20840000
    52  H          0.43290000       0.42490000       0.79160000
    53  C          0.71743000       0.47603170       0.31501150
    54  C          0.28257000       0.52396830       0.68498850
    55  H          0.62080000       0.46120000       0.36240000
    56  H          0.37920000       0.53880000       0.63760000
    57  C          0.59133000       0.39291170       0.11226150
    58  C          0.40867000       0.60708830       0.88773850
    59  C          0.66663000       0.31411160       0.20060140
    60  C          0.33337000       0.68588840       0.79939860
    61  C          0.55223000       0.27902160       0.28425140
    62  C          0.44777000       0.72097840       0.71574860
    63  H          0.42880000       0.30370000       0.28470000
    64  H          0.57120000       0.69630000       0.71530000
    65  C          0.62423000       0.20719160       0.36631140
    66  C          0.37577000       0.79280840       0.63368860
    67  C          0.80733000       0.16995160       0.37013140
    68  C          0.19267000       0.83004840       0.62986860
    69  H          0.85370000       0.12190000       0.42640000
    70  H          0.14630000       0.87810000       0.57360000
    71  C          0.91753000       0.20773160       0.28619150
    72  C          0.08247000       0.79226840       0.71380850
    73  C          0.85213000       0.27807160       0.20069150
    74  C          0.14787000       0.72192840       0.79930850
    75  H          0.92970000       0.30050000       0.14500000
    76  H          0.07030000       0.69950000       0.85500000
    77  O          0.69292000       0.41075130       0.03519100
    78  O          0.30708000       0.58924870       0.96480900
    79  H          0.64940000       0.46221800       0.98178600
    80  H          0.35060000       0.53778200       0.01821400
    81  O          0.43522000       0.43826120       0.11733100
    82  O          0.56478000       0.56173880       0.88266900
    83  O          0.35132000       0.21933130       0.45433110
    84  O          0.64868000       0.78066870       0.54566890
    85  O          0.55602000       0.09252140       0.52172110
    86  O          0.44398000       0.90747860       0.47827890
    87  O          0.17362000       0.11416130       0.36241110
    88  O          0.82638000       0.88583870       0.63758890
    89  O          0.21072000       0.20835130       0.21117110
    90  O          0.78928000       0.79164870       0.78882890
    91  N          0.50082000       0.16973150       0.45394120
    92  N          0.49918000       0.83026850       0.54605880
    93  N          0.11492000       0.17368140       0.28680130
    94  N          0.88508000       0.82631860       0.71319870
    95  C          0.37803000       0.10155160       0.89678140
    96  C          0.62197000       0.89844840       0.10321860
    97  C          0.28103000       0.18094160       0.81541140
    98  C          0.71897000       0.81905840       0.18458860
    99  C          0.37873000       0.22697160       0.72743140
   100  C          0.62127000       0.77302840       0.27256860
   101  H          0.50340000       0.20820000       0.71900000
   102  H          0.49660000       0.79180000       0.28100000
   103  C          0.28673000       0.30108160       0.65289140
   104  C          0.71327000       0.69891840       0.34710860
   105  C          0.10173000       0.33252160       0.66145150
   106  C          0.89827000       0.66747840       0.33854850
   107  H          0.04240000       0.38330000       0.61050000
   108  H          0.95760000       0.61670000       0.38950000
   109  C          0.01013000       0.28398160       0.75032150
   110  C         -0.01013000       0.71601840       0.24967850
   111  C          0.09473000       0.20892170       0.82687150
   112  C          0.90527000       0.79107830       0.17312850
   113  H          0.02810000       0.17740000       0.88530000
   114  H          0.97190000       0.82260000       0.11470000
   115  N          0.39153000       0.35208150       0.56044120
   116  N          0.60847000       0.64791850       0.43955880
   117  N          0.81358000       0.31615150       0.76342140
   118  N          0.18642000       0.68384850       0.23657860
   119  O          0.28022000       0.05943120       0.97510100
   120  O          0.71978000       0.94056880       0.02489900
   121  H          0.34430000       0.01111800       0.02181500
   122  H          0.65570000       0.98888200       0.97818500
   123  O          0.54832000       0.08152120       0.88459100
   124  O          0.45168000       0.91847880       0.11540900
   125  O          0.54952000       0.31591130       0.55110110
   126  O          0.45048000       0.68408870       0.44889890
   127  O          0.31632000       0.42740140       0.49838110
   128  O          0.68368000       0.57259860       0.50161890
   129  O          0.73518000       0.37310130       0.69274120
   130  O          0.26482000       0.62689870       0.30725880
   131  O          0.73998000       0.28423130       0.84463120
   132  O          0.26002000       0.71576870       0.15536880
