data_TOHGUV
_symmetry_space_group_name_H-M    'P1'
_symmetry_Int_Tables_number       1
loop_
_symmetry_equiv_pos_site_id
_symmetry_equiv_pos_as_xyz
1 x,y,z
_cell_length_a                   14.8303
_cell_length_b                   5.57961
_cell_length_c                   21.8164
_cell_angle_alpha                90.0
_cell_angle_beta                 107.8852
_cell_angle_gamma                90.0
loop_
_atom_site_label
_atom_site_type_symbol
_atom_site_fract_x
_atom_site_fract_y
_atom_site_fract_z
     1  I          0.80322200       0.59272600       0.69812200
     2  I          0.69677800       0.09272600       0.80187800
     3  I          0.19677800       0.40727400       0.30187800
     4  I          0.30322200       0.90727400       0.19812200
     5  S          0.97671900       0.63202000       0.61965600
     6  S          0.52328100       0.13202000       0.88034400
     7  S          0.02328100       0.36798000       0.38034400
     8  S          0.47671900       0.86798000       0.11965600
     9  O          0.70243000       0.41457000       0.70944180
    10  O          0.79757000       0.91457000       0.79055820
    11  O          0.29757000       0.58543000       0.29055820
    12  O          0.20243000       0.08543000       0.20944180
    13  O          0.94412000       0.78566000       0.66261170
    14  O          0.55588000       0.28566000       0.83738830
    15  O          0.05588000       0.21434000       0.33738830
    16  O          0.44412000       0.71434000       0.16261170
    17  O         -0.00277000       0.74286000       0.56569170
    18  O          0.50277000       0.24286000       0.93430830
    19  O          0.00277000       0.25714000       0.43430830
    20  O          0.49723000       0.75714000       0.06569170
    21  C          0.81824000       0.37388000       0.62132000
    22  C          0.68176000       0.87388000       0.87868000
    23  C          0.18176000       0.62612000       0.37868000
    24  C          0.31824000       0.12612000       0.12132000
    25  C          0.75144000       0.19731000       0.59892000
    26  C          0.74856000       0.69731000       0.90108000
    27  C          0.24856000       0.80269000       0.40108000
    28  C          0.25144000       0.30269000       0.09892000
    29  H          0.70510000       0.17100000       0.61880000
    30  H          0.79490000       0.67100000       0.88120000
    31  H          0.29490000       0.82900000       0.38120000
    32  H          0.20510000       0.32900000       0.11880000
    33  C          0.75344000       0.05889000       0.54653000
    34  C          0.74656000       0.55889000       0.95347000
    35  C          0.24656000       0.94111000       0.45347000
    36  C          0.25344000       0.44111000       0.04653000
    37  H          0.70940000       0.93640000       0.53210000
    38  H          0.79060000       0.43640000       0.96790000
    39  H          0.29060000       0.06360000       0.46790000
    40  H          0.20940000       0.56360000       0.03210000
    41  C          0.82034000       0.10179000       0.51563000
    42  C          0.67966000       0.60179000       0.98437000
    43  C          0.17966000       0.89821000       0.48437000
    44  C          0.32034000       0.39821000       0.01563000
    45  H          0.81980000       0.01130000       0.47970000
    46  H          0.68020000       0.51130000       0.02030000
    47  H          0.18020000      -0.01130000       0.52030000
    48  H          0.31980000       0.48870000       0.97970000
    49  C          0.88764000       0.27719000       0.53752000
    50  C          0.61236000       0.77719000       0.96248000
    51  C          0.11236000       0.72281000       0.46248000
    52  C          0.38764000       0.22281000       0.03752000
    53  H          0.93290000       0.30460000       0.51680000
    54  H          0.56710000       0.80460000       0.98320000
    55  H          0.06710000       0.69540000       0.48320000
    56  H          0.43290000       0.19540000       0.01680000
    57  C          0.88753000       0.41519000       0.59172000
    58  C          0.61247000       0.91519000       0.90828000
    59  C          0.11247000       0.58481000       0.40828000
    60  C          0.38753000       0.08481000       0.09172000
    61  C          0.08283000       0.47839000       0.66763000
    62  C          0.41717000      -0.02161000       0.83237000
    63  C          0.91717000       0.52161000       0.33237000
    64  C          0.58283000       0.02161000       0.16763000
    65  C          0.05954000       0.34001000       0.72143000
    66  C          0.44046000       0.84001000       0.77857000
    67  C          0.94046000       0.65999000       0.27857000
    68  C          0.55954000       0.15999000       0.22143000
    69  H          0.03580000       0.44900000       0.74690000
    70  H          0.46420000       0.94900000       0.75310000
    71  H          0.96420000       0.55100000       0.25310000
    72  H          0.53580000       0.05100000       0.24690000
    73  H          0.11580000       0.26340000       0.74830000
    74  H          0.38420000       0.76340000       0.75170000
    75  H          0.88420000       0.73660000       0.25170000
    76  H          0.61580000       0.23660000       0.24830000
    77  H          0.01230000       0.22090000       0.70290000
    78  H          0.48770000       0.72090000       0.79710000
    79  H         -0.01230000       0.77910000       0.29710000
    80  H          0.51230000       0.27910000       0.20290000
    81  C          0.11894000       0.31191000       0.62393000
    82  C          0.38106000       0.81191000       0.87607000
    83  C          0.88106000       0.68809000       0.37607000
    84  C          0.61894000       0.18809000       0.12393000
    85  H          0.07390000       0.18540000       0.60790000
    86  H          0.42610000       0.68540000       0.89210000
    87  H          0.92610000       0.81460000       0.39210000
    88  H          0.57390000       0.31460000       0.10790000
    89  H          0.17870000       0.24420000       0.64810000
    90  H          0.32130000       0.74420000       0.85190000
    91  H          0.82130000       0.75580000       0.35190000
    92  H          0.67870000       0.25580000       0.14810000
    93  H          0.12660000       0.40220000       0.58830000
    94  H          0.37340000       0.90220000       0.91170000
    95  H          0.87340000       0.59780000       0.41170000
    96  H          0.62660000       0.09780000       0.08830000
    97  C          0.15444000       0.67751000       0.69493000
    98  C          0.34556000       0.17751000       0.80507000
    99  C          0.84556000       0.32249000       0.30507000
   100  C          0.65444000       0.82249000       0.19493000
   101  H          0.16630000       0.76420000       0.66010000
   102  H          0.33370000       0.26420000       0.83990000
   103  H          0.83370000       0.23580000       0.33990000
   104  H          0.66630000       0.73580000       0.16010000
   105  H          0.21260000       0.60870000       0.72160000
   106  H          0.28740000       0.10870000       0.77840000
   107  H          0.78740000       0.39130000       0.27840000
   108  H          0.71260000       0.89130000       0.22160000
   109  H          0.12950000       0.78480000       0.72010000
   110  H          0.37050000       0.28480000       0.77990000
   111  H          0.87050000       0.21520000       0.27990000
   112  H          0.62950000       0.71520000       0.22010000
   113  F          0.58873000       0.76808000       0.57712000
   114  F          0.91127000       0.26808000       0.92288000
   115  F          0.41127000       0.23192000       0.42288000
   116  F          0.08873000       0.73192000       0.07712000
   117  F          0.44963000       0.70688000       0.51136170
   118  F          0.05037000       0.20688000       0.98863830
   119  F          0.55037000       0.29312000       0.48863830
   120  F          0.94963000       0.79312000       0.01136170
   121  F          0.46783000       0.95497000       0.58863000
   122  F          0.03217000       0.45497000       0.91137000
   123  F          0.53217000       0.04503000       0.41137000
   124  F          0.96783000       0.54503000       0.08863000
   125  F          0.33533000       0.41636000       0.55298180
   126  F          0.16467000       0.91636000       0.94701820
   127  F          0.66467000       0.58364000       0.44701820
   128  F          0.83533000       0.08364000       0.05298180
   129  F          0.33932000       0.68417000       0.62425170
   130  F          0.16068000       0.18417000       0.87574830
   131  F          0.66068000       0.31583000       0.37574830
   132  F          0.83932000       0.81583000       0.12425170
   133  F          0.37883000       0.32199000       0.65332000
   134  F          0.12117000       0.82199000       0.84668000
   135  F          0.62117000       0.67801000       0.34668000
   136  F          0.87883000       0.17801000       0.15332000
   137  O          0.53523000       0.60299000       0.68036190
   138  O          0.96477000       0.10299000       0.81963810
   139  O          0.46477000       0.39701000       0.31963810
   140  O          0.03523000       0.89701000       0.18036190
   141  H          0.58280000       0.51940000       0.69340000
   142  H          0.91720000       0.01940000       0.80660000
   143  H          0.41720000       0.48060000       0.30660000
   144  H          0.08280000      -0.01940000       0.19340000
   145  C          0.48684000       0.54201000       0.61723000
   146  C          0.01316000       0.04201000       0.88277000
   147  C          0.51316000       0.45799000       0.38277000
   148  C          0.98684000       0.95799000       0.11723000
   149  H          0.51470000       0.39600000       0.60580000
   150  H          0.98530000       0.89600000       0.89420000
   151  H          0.48530000       0.60400000       0.39420000
   152  H          0.01470000       0.10400000       0.10580000
   153  C          0.38444000       0.49431200       0.61163000
   154  C          0.11556000      -0.00568800       0.88837000
   155  C          0.61556000       0.50568800       0.38837000
   156  C          0.88444000       0.00568800       0.11163000
   157  C          0.49674000       0.74331100       0.57323000
   158  C          0.00326000       0.24331100       0.92677000
   159  C          0.50326000       0.25668900       0.42677000
   160  C         -0.00326000       0.75668900       0.07323000
