data_TOJBUQ
_symmetry_space_group_name_H-M    'P1'
_symmetry_Int_Tables_number       1
loop_
_symmetry_equiv_pos_site_id
_symmetry_equiv_pos_as_xyz
1 x,y,z
_cell_length_a                   7.68814
_cell_length_b                   14.89968
_cell_length_c                   15.32968
_cell_angle_alpha                72.16001
_cell_angle_beta                 88.36401
_cell_angle_gamma                88.50801
loop_
_atom_site_label
_atom_site_type_symbol
_atom_site_fract_x
_atom_site_fract_y
_atom_site_fract_z
     1  I          0.52207200       0.70382512       0.72976711
     2  I          0.47792800       0.29617488       0.27023289
     3  I          0.81198200       0.50997412       0.38566711
     4  I          0.18801800       0.49002588       0.61433289
     5  C          0.60543000       0.64490190       0.62781180
     6  C          0.39457000       0.35509810       0.37218820
     7  C          0.63043000       0.54864190       0.64501170
     8  C          0.36957000       0.45135810       0.35498830
     9  F          0.59752000       0.48946120       0.72976110
    10  F          0.40248000       0.51053880       0.27023890
    11  C          0.68573000       0.51037190       0.57746190
    12  C          0.31427000       0.48962810       0.42253810
    13  F          0.70262000       0.41557110       0.59899110
    14  F          0.29738000       0.58442890       0.40100890
    15  C          0.72283000       0.56636190       0.48911180
    16  C          0.27717000       0.43363810       0.51088820
    17  C          0.69713000       0.66240190       0.47163180
    18  C          0.30287000       0.33759810       0.52836820
    19  F          0.73032000       0.72169120       0.38647110
    20  F          0.26968000       0.27830880       0.61352890
    21  C          0.64133000       0.70061190       0.53883180
    22  C          0.35867000       0.29938810       0.46116820
    23  F          0.62422000       0.79543120       0.51686110
    24  F          0.37578000       0.20456880       0.48313890
    25  I          0.87092200       0.22587913       0.50104713
    26  I          0.12907800       0.77412087       0.49895287
    27  C          0.94794000       0.09132000       0.50040190
    28  C          0.05206000       0.90868000       0.49959810
    29  C          0.06624000       0.03762000       0.56324190
    30  C          0.93376000       0.96238000       0.43675810
    31  F          0.13282000       0.07112130       0.62654120
    32  F          0.86718000       0.92887870       0.37345880
    33  C          0.88264000       0.05192000       0.43781190
    34  C          0.11736000       0.94808000       0.56218810
    35  F          0.76822000       0.10026130       0.37568120
    36  F          0.23178000       0.89973870       0.62431880
    37  N          0.45063000       0.78019170       0.87137160
    38  N          0.54937000       0.21980830       0.12862840
    39  C          0.35584000       0.85852000       0.86509190
    40  C          0.64416000       0.14148000       0.13490810
    41  H          0.30200000       0.89050000       0.80870000
    42  H          0.69800000       0.10950000       0.19130000
    43  C          0.33333000       0.89468190       0.93883180
    44  C          0.66667000       0.10531810       0.06116820
    45  C          0.40843000       0.84654190       0.02258190
    46  C          0.59157000       0.15345810       0.97741810
    47  H          0.39530000       0.86950000       0.07380000
    48  H          0.60470000       0.13050000       0.92620000
    49  C          0.50264000       0.76436190       0.02889190
    50  C          0.49736000       0.23563810       0.97110810
    51  C          0.52384000       0.73482000       0.95080190
    52  C          0.47616000       0.26518000       0.04919810
    53  H          0.59330000       0.68010000       0.95470000
    54  H          0.40670000       0.31990000       0.04530000
    55  C          0.23454000       0.98032000       0.92628190
    56  C          0.76546000       0.01968000       0.07371810
    57  C          0.55734000       0.73472000       0.18734190
    58  C          0.44266000       0.26528000       0.81265810
    59  H          0.62240000       0.69050000       0.23690000
    60  H          0.37760000       0.30950000       0.76310000
    61  H          0.43360000       0.73360000       0.20480000
    62  H          0.56640000       0.26640000       0.79520000
    63  H          0.60110000       0.79860000       0.17630000
    64  H          0.39890000       0.20140000       0.82370000
    65  N          0.96187000       0.28377170       0.91280170
    66  N          0.03813000       0.71622830       0.08719830
    67  C          0.03654000       0.19792000       0.93933190
    68  C          0.96346000       0.80208000       0.06066810
    69  H          0.07350000       0.17340000       0.00090000
    70  H          0.92650000       0.82660000      -0.00090000
    71  C          0.06303000       0.14218190       0.88092190
    72  C          0.93697000       0.85781810       0.11907810
    73  C          0.00854000       0.17862000       0.79094190
    74  C         -0.00854000       0.82138000       0.20905810
    75  H          0.02310000       0.14270000       0.74950000
    76  H          0.97690000       0.85730000       0.25050000
    77  C          0.93296000       0.26722000       0.76272000
    78  C          0.06704000       0.73278000       0.23728000
    79  H          0.89550000       0.29380000       0.70150000
    80  H          0.10450000       0.70620000       0.29850000
    81  O          0.57893000       0.70781150       0.10525140
    82  O          0.42107000       0.29218850       0.89474860
    83  C          0.91286000       0.31702000       0.82552000
    84  C          0.08714000       0.68298000       0.17448000
    85  H          0.86140000       0.37830000       0.80530000
    86  H          0.13860000       0.62170000       0.19470000
    87  C          0.15324000       0.05302000       0.91026190
    88  C          0.84676000       0.94698000       0.08973810
    89  N          0.89423000       0.44780170       0.23574160
    90  N          0.10577000       0.55219830       0.76425840
    91  C          0.97004000       0.36472000       0.24220190
    92  C          0.02996000       0.63528000       0.75779810
    93  H          0.02820000       0.33230000       0.29710000
    94  H          0.97180000       0.66770000       0.70290000
    95  C          0.96803000       0.32314190       0.17258190
    96  C          0.03197000       0.67685810       0.82741810
    97  C          0.88623000       0.37133190       0.09038190
    98  C          0.11377000       0.62866810       0.90961810
    99  H          0.88520000       0.34580000       0.04070000
   100  H          0.11480000       0.65420000       0.95930000
   101  C          0.80653000       0.45781190       0.08422190
   102  C          0.19347000       0.54218810       0.91577810
   103  O          0.71933000       0.51269140       0.01109130
   104  O          0.28067000       0.48730860       0.98890870
   105  C          0.81284000       0.49363190       0.15840190
   106  C          0.18716000       0.50636810       0.84159810
   107  H          0.75730000       0.55260000       0.15370000
   108  H          0.24270000       0.44740000       0.84630000
   109  C          0.05034000       0.23262000       0.18709190
   110  C          0.94966000       0.76738000       0.81290810
   111  C          0.71574000       0.48142000       0.93158810
   112  C          0.28426000       0.51858000       0.06841190
   113  H          0.65120000       0.52770000       0.88320000
   114  H          0.34880000       0.47230000       0.11680000
   115  H          0.65840000       0.42040000       0.94730000
   116  H          0.34160000       0.57960000       0.05270000
   117  H          0.83500000       0.47480000       0.90990000
   118  H          0.16500000       0.52520000       0.09010000
   119  N          0.36593000       0.93877820       0.20448180
   120  N          0.63407000       0.06122180       0.79551820
   121  C          0.26134000       0.01502000       0.18112000
   122  C          0.73866000       0.98498000       0.81888000
   123  H          0.20490000       0.03060000       0.12390000
   124  H          0.79510000       0.96940000       0.87610000
   125  C          0.23093000       0.07303190       0.23705190
   126  C          0.76907000       0.92696810       0.76294810
   127  C          0.31214000       0.04902000       0.32129190
   128  C          0.68786000       0.95098000       0.67870810
   129  H          0.29410000       0.08640000       0.36120000
   130  H          0.70590000       0.91360000       0.63880000
   131  C          0.41974000       0.96968000       0.34592000
   132  C          0.58026000       0.03032000       0.65408000
   133  H          0.47610000       0.95120000       0.40320000
   134  H          0.52390000       0.04880000       0.59680000
   135  C          0.44324000       0.91798000       0.28542000
   136  C          0.55676000       0.08202000       0.71458000
   137  H          0.51900000       0.86430000       0.30230000
   138  H          0.48100000       0.13570000       0.69770000
   139  C          0.12614000       0.15792000       0.20735190
   140  C          0.87386000       0.84208000       0.79264810
