data_TOJCOL
_symmetry_space_group_name_H-M    'P1'
_symmetry_Int_Tables_number       1
loop_
_symmetry_equiv_pos_site_id
_symmetry_equiv_pos_as_xyz
1 x,y,z
_cell_length_a                   5.86306
_cell_length_b                   8.24789
_cell_length_c                   9.59599
_cell_angle_alpha                89.6598
_cell_angle_beta                 76.9318
_cell_angle_gamma                75.8209
loop_
_atom_site_label
_atom_site_type_symbol
_atom_site_fract_x
_atom_site_fract_y
_atom_site_fract_z
     1  Cl         0.21714800      -0.01329400       0.16967500
     2  Cl         0.78285200       0.01329400       0.83032500
     3  N          0.79723000       0.82472000       0.13855190
     4  N          0.20277000       0.17528000       0.86144810
     5  C          0.93183000       0.67702000       0.03977170
     6  C          0.06817000       0.32298000       0.96022830
     7  C          0.75753000       0.59492000      -0.00952000
     8  C          0.24247000       0.40508000       0.00952000
     9  C          0.10293000       0.55602000       0.11161190
    10  C          0.89707000       0.44398000       0.88838810
    11  H          0.89440000       0.88820000       0.16220000
    12  H          0.10560000       0.11180000       0.83780000
    13  H          0.71240000       0.80030000       0.22520000
    14  H          0.28760000       0.19970000       0.77480000
    15  H          0.69640000       0.89030000       0.10220000
    16  H          0.30360000       0.10970000       0.89780000
    17  H          0.02130000       0.72020000       0.96098200
    18  H          0.97870000       0.27980000       0.03901800
    19  H          0.66230000       0.55820000       0.07301900
    20  H          0.33770000       0.44180000       0.92698100
    21  H          0.64530000       0.67520000       0.94880000
    22  H          0.35470000       0.32480000       0.05120000
    23  H          0.20830000       0.61520000       0.14301800
    24  H          0.79170000       0.38480000       0.85698200
    25  H          0.00530000       0.52420000       0.19431900
    26  H         -0.00530000       0.47580000       0.80568100
    27  S          0.61941800       0.19164600       0.50071500
    28  S          0.38058200       0.80835400       0.49928500
    29  O          0.40972000       0.30087190       0.60783140
    30  O          0.59028000       0.69912810       0.39216860
    31  C          0.87174000       0.27424000       0.49803000
    32  C          0.12826000       0.72576000       0.50197000
    33  C          0.57295000       0.25514000       0.32943000
    34  C          0.42705000       0.74486000       0.67057000
    35  H          0.98730000       0.22830000       0.42220000
    36  H          0.01270000       0.77170000       0.57780000
    37  H          0.82640000       0.39030000       0.48630000
    38  H          0.17360000       0.60970000       0.51370000
    39  H          0.91050000       0.25230000       0.58730000
    40  H          0.08950000       0.74770000       0.41270000
    41  H          0.45350000       0.21030000       0.30930000
    42  H          0.54650000       0.78970000       0.69070000
    43  H          0.53940000       0.37830000       0.33320000
    44  H          0.46060000       0.62170000       0.66680000
    45  H          0.69840000       0.20930000       0.26320000
    46  H          0.30160000       0.79070000       0.73680000
