data_TOJCEB
_symmetry_space_group_name_H-M    'P1'
_symmetry_Int_Tables_number       1
loop_
_symmetry_equiv_pos_site_id
_symmetry_equiv_pos_as_xyz
1 x,y,z
_cell_length_a                   30.3452
_cell_length_b                   4.18783
_cell_length_c                   16.694612
_cell_angle_alpha                90.0
_cell_angle_beta                 90.0
_cell_angle_gamma                90.0
loop_
_atom_site_label
_atom_site_type_symbol
_atom_site_fract_x
_atom_site_fract_y
_atom_site_fract_z
     1  C          0.32712000       0.23420000       0.14674000
     2  C          0.67288000       0.76580000       0.14674000
     3  C          0.17288000       0.73420000       0.85326000
     4  C          0.82712000       0.26580000       0.85326000
     5  I          0.27893516       0.00894140       0.21461300
     6  I          0.72106484      -0.00894140       0.21461300
     7  I          0.22106484       0.50894140       0.78538700
     8  I          0.77893516       0.49105860       0.78538700
     9  C          0.31913000       0.32320000       0.06835000
    10  C          0.68087000       0.67680000       0.06835000
    11  C          0.18087000       0.82320000       0.93165000
    12  C          0.81913000       0.17680000       0.93165000
    13  F          0.28080180       0.25320000       0.03533000
    14  F          0.71919820       0.74680000       0.03533000
    15  F          0.21919820       0.75320000       0.96467000
    16  F          0.78080180       0.24680000       0.96467000
    17  C          0.35043000       0.47730000       0.02385000
    18  C          0.64957000       0.52270000       0.02385000
    19  C          0.14957000      -0.02270000       0.97615000
    20  C          0.85043000       0.02270000       0.97615000
    21  F          0.34122000       0.55920000       0.94937000
    22  F          0.65878000       0.44080000       0.94937000
    23  F          0.15878000       0.05920000       0.05063000
    24  F          0.84122000       0.94080000       0.05063000
    25  C          0.39083000       0.55081900       0.05515000
    26  C          0.60917000       0.44918100       0.05515000
    27  C          0.10917000       0.05081900       0.94485000
    28  C          0.89083000       0.94918100       0.94485000
    29  I          0.43945619       0.76156150       0.98587700
    30  I          0.56054381       0.23843850       0.98587700
    31  I          0.06054381       0.26156150       0.01412300
    32  I          0.93945619       0.73843850       0.01412300
    33  C          0.39873000       0.45930000       0.13435000
    34  C          0.60127000       0.54070000       0.13435000
    35  C          0.10127000       0.95930000       0.86565000
    36  C          0.89873000       0.04070000       0.86565000
    37  F          0.43796180       0.52420000       0.16743000
    38  F          0.56203820       0.47580000       0.16743000
    39  F          0.06203820       0.02420000       0.83257000
    40  F          0.93796180      -0.02420000       0.83257000
    41  C          0.36753000       0.29930000       0.17775000
    42  C          0.63247000       0.70070000       0.17775000
    43  C          0.13247000       0.79930000       0.82225000
    44  C          0.86753000       0.20070000       0.82225000
    45  F          0.37728180       0.22520000       0.25383000
    46  F          0.62271820       0.77480000       0.25383000
    47  F          0.12271820       0.72520000       0.74617000
    48  F          0.87728180       0.27480000       0.74617000
    49  N          0.00000000       0.50000000       0.15295000
    50  N          0.50000000       0.00000000       0.84705000
    51  C          0.02973000       0.65698100       0.19375000
    52  C          0.97027000       0.34301900       0.19375000
    53  C          0.47027000       0.15698100       0.80625000
    54  C          0.52973000       0.84301900       0.80625000
    55  H          0.05190000       0.76920000       0.16490000
    56  H          0.94810000       0.23080000       0.16490000
    57  H          0.44810000       0.26920000       0.83510000
    58  H          0.55190000       0.73080000       0.83510000
    59  C          0.03083000       0.66878200       0.27745000
    60  C          0.96917000       0.33121800       0.27745000
    61  C          0.46917000       0.16878200       0.72255000
    62  C          0.53083000       0.83121800       0.72255000
    63  C          0.06653000       0.86180000       0.31655000
    64  C          0.93347000       0.13820000       0.31655000
    65  C          0.43347000       0.36180000       0.68345000
    66  C          0.56653000       0.63820000       0.68345000
    67  O          0.06582000       0.86028400       0.39273000
    68  O          0.93418000       0.13971600       0.39273000
    69  O          0.43418000       0.36028400       0.60727000
    70  O          0.56582000       0.63971600       0.60727000
    71  H          0.08950000       0.93740000       0.41040000
    72  H          0.91050000       0.06260000       0.41040000
    73  H          0.41050000       0.43740000       0.58960000
    74  H          0.58950000       0.56260000       0.58960000
    75  O          0.09280170       0.01311800       0.27493000
    76  O          0.90719830      -0.01311800       0.27493000
    77  O          0.40719830       0.51311800       0.72507000
    78  O          0.59280170       0.48688200       0.72507000
    79  C          0.00000000       0.50000000       0.31906000
    80  C          0.50000000       0.00000000       0.68094000
    81  H          0.00000000       0.50000000       0.37590000
    82  H          0.50000000       0.00000000       0.62410000
    83  N          0.13002000       0.17541700       0.45964000
    84  N          0.86998000       0.82458300       0.45964000
    85  N          0.36998000       0.67541700       0.54036000
    86  N          0.63002000       0.32458300       0.54036000
    87  C          0.16133000       0.34220000       0.42765000
    88  C          0.83867000       0.65780000       0.42765000
    89  C          0.33867000       0.84220000       0.57235000
    90  C          0.66133000       0.15780000       0.57235000
    91  N          0.15762000       0.37911600       0.34614000
    92  N          0.84238000       0.62088400       0.34614000
    93  N          0.34238000       0.87911600       0.65386000
    94  N          0.65762000       0.12088400       0.65386000
    95  H          0.13560000       0.27610000       0.32340000
    96  H          0.86440000       0.72390000       0.32340000
    97  H          0.36440000       0.77610000       0.67660000
    98  H          0.63560000       0.22390000       0.67660000
    99  C          0.19553000       0.47430000       0.47335000
   100  C          0.80447000       0.52570000       0.47335000
   101  C          0.30447000      -0.02570000       0.52665000
   102  C          0.69553000       0.02570000       0.52665000
   103  H          0.21810000       0.59800000       0.44900000
   104  H          0.78190000       0.40200000       0.44900000
   105  H          0.28190000       0.09800000       0.55100000
   106  H          0.71810000       0.90200000       0.55100000
   107  C          0.19513000       0.41930000       0.55386000
   108  C          0.80487000       0.58070000       0.55386000
   109  C          0.30487000       0.91930000       0.44614000
   110  C          0.69513000       0.08070000       0.44614000
   111  H          0.21780000       0.50530000       0.58670000
   112  H          0.78220000       0.49470000       0.58670000
   113  H          0.28220000       0.00530000       0.41330000
   114  H          0.71780000      -0.00530000       0.41330000
   115  C          0.16203000       0.24030000       0.58775000
   116  C          0.83797000       0.75970000       0.58775000
   117  C          0.33797000       0.74030000       0.41225000
   118  C          0.66203000       0.25970000       0.41225000
   119  H          0.16120000       0.20130000       0.64370000
   120  H          0.83880000       0.79870000       0.64370000
   121  H          0.33880000       0.70130000       0.35630000
   122  H          0.66120000       0.29870000       0.35630000
   123  C          0.13083000       0.12020000       0.53906000
   124  C          0.86917000       0.87980000       0.53906000
   125  C          0.36917000       0.62020000       0.46094000
   126  C          0.63083000       0.37980000       0.46094000
   127  H          0.10830000      -0.00930000       0.56170000
   128  H          0.89170000       0.00930000       0.56170000
   129  H          0.39170000       0.49070000       0.43830000
   130  H          0.60830000       0.50930000       0.43830000
   131  C          0.18383000       0.55820000       0.29465000
   132  C          0.81617000       0.44180000       0.29465000
   133  C          0.31617000       0.05820000       0.70535000
   134  C          0.68383000       0.94180000       0.70535000
   135  O          0.21443190       0.72271800       0.31843000
   136  O          0.78556810       0.27728200       0.31843000
   137  O          0.28556810       0.22271800       0.68157000
   138  O          0.71443190       0.77728200       0.68157000
   139  C          0.16933000       0.53530000       0.20765000
   140  C          0.83067000       0.46470000       0.20765000
   141  C          0.33067000       0.03530000       0.79235000
   142  C          0.66933000       0.96470000       0.79235000
   143  H          0.18880000       0.66660000       0.17430000
   144  H          0.81120000       0.33340000       0.17430000
   145  H          0.31120000       0.16660000       0.82570000
   146  H          0.68880000       0.83340000       0.82570000
   147  H          0.13890000       0.61290000       0.20260000
   148  H          0.86110000       0.38710000       0.20260000
   149  H          0.36110000       0.11290000       0.79740000
   150  H          0.63890000       0.88710000       0.79740000
   151  H          0.17080000       0.31270000       0.18980000
   152  H          0.82920000       0.68730000       0.18980000
   153  H          0.32920000       0.81270000       0.81020000
   154  H          0.67080000       0.18730000       0.81020000
