data_TOKFEG
_symmetry_space_group_name_H-M    'P1'
_symmetry_Int_Tables_number       1
loop_
_symmetry_equiv_pos_site_id
_symmetry_equiv_pos_as_xyz
1 x,y,z
_cell_length_a                   9.59537
_cell_length_b                   5.74264
_cell_length_c                   24.935617
_cell_angle_alpha                90.0
_cell_angle_beta                 95.95501
_cell_angle_gamma                90.0
loop_
_atom_site_label
_atom_site_type_symbol
_atom_site_fract_x
_atom_site_fract_y
_atom_site_fract_z
     1  I          0.19401200       0.90219600       0.43266790
     2  I          0.80598800       0.40219600       0.06733210
     3  I          0.80598800       0.09780400       0.56733210
     4  I          0.19401200       0.59780400       0.93266790
     5  C          0.07803000       0.66325000       0.47325120
     6  C          0.92197000       0.16325000       0.02674880
     7  C          0.92197000       0.33675000       0.52674880
     8  C          0.07803000       0.83675000       0.97325120
     9  C         -0.00333000       0.49634000       0.44541120
    10  C          0.00333000      -0.00366000       0.05458880
    11  C          0.00333000       0.50366000       0.55458880
    12  C         -0.00333000       0.00366000       0.94541120
    13  C          0.92107000       0.33725000       0.47158130
    14  C          0.07893000       0.83725000       0.02841870
    15  C          0.07893000       0.66275000       0.52841870
    16  C          0.92107000       0.16275000       0.97158130
    17  F         -0.01012000       0.48666000       0.39131700
    18  F          0.01012000      -0.01334000       0.10868300
    19  F          0.01012000       0.51334000       0.60868300
    20  F         -0.01012000       0.01334000       0.89131700
    21  F          0.84468000       0.17726000       0.44199800
    22  F          0.15532000       0.67726000       0.05800200
    23  F          0.15532000       0.82274000       0.55800200
    24  F          0.84468000       0.32274000       0.94199800
    25  C          0.40843000       0.40456000       0.37339130
    26  C          0.59157000       0.90456000       0.12660870
    27  C          0.59157000       0.59544000       0.62660870
    28  C          0.40843000       0.09544000       0.87339130
    29  C          0.49294000       0.39817000       0.42240150
    30  C          0.50706000       0.89817000       0.07759850
    31  C          0.50706000       0.60183000       0.57759850
    32  C          0.49294000       0.10183000       0.92240150
    33  H          0.48280000       0.27700000       0.44640000
    34  H          0.51720000       0.77700000       0.05360000
    35  H          0.51720000       0.72300000       0.55360000
    36  H          0.48280000       0.22300000       0.94640000
    37  C          0.58994000       0.56708000       0.43535160
    38  C          0.41006000       0.06708000       0.06464840
    39  C          0.41006000       0.43292000       0.56464840
    40  C          0.58994000       0.93292000       0.93535160
    41  H          0.64470000       0.56260000       0.46840000
    42  H          0.35530000       0.06260000       0.03160000
    43  H          0.35530000       0.43740000       0.53160000
    44  H          0.64470000       0.93740000       0.96840000
    45  C          0.60694000       0.74637000       0.39918170
    46  C          0.39306000       0.24637000       0.10081830
    47  C          0.39306000       0.25363000       0.60081830
    48  C          0.60694000       0.75363000       0.89918170
    49  H          0.67330000       0.86160000       0.40810000
    50  H          0.32670000       0.36160000       0.09190000
    51  H          0.32670000       0.13840000       0.59190000
    52  H          0.67330000       0.63840000       0.90810000
    53  C          0.52684000       0.75456000       0.35065150
    54  C          0.47316000       0.25456000       0.14934850
    55  C          0.47316000       0.24544000       0.64934850
    56  C          0.52684000       0.74544000       0.85065150
    57  H          0.54030000       0.87470000       0.32670000
    58  H          0.45970000       0.37470000       0.17330000
    59  H          0.45970000       0.12530000       0.67330000
    60  H          0.54030000       0.62530000       0.82670000
    61  C          0.42483000       0.58575000       0.33620130
    62  C          0.57517000       0.08575000       0.16379870
    63  C          0.57517000       0.41425000       0.66379870
    64  C          0.42483000       0.91425000       0.83620130
    65  C          0.33503000       0.58645000       0.28606130
    66  C          0.66497000       0.08645000       0.21393870
    67  C          0.66497000       0.41355000       0.71393870
    68  C          0.33503000       0.91355000       0.78606130
    69  C          0.34004000       0.75426000       0.24491140
    70  C          0.65996000       0.25426000       0.25508860
    71  C          0.65996000       0.24574000       0.75508860
    72  C          0.34004000       0.74574000       0.74491140
    73  H          0.40380000       0.87620000       0.24970000
    74  H          0.59620000       0.37620000       0.25030000
    75  H          0.59620000       0.12380000       0.75030000
    76  H          0.40380000       0.62380000       0.74970000
    77  C          0.25364000       0.74057000       0.19870150
    78  C          0.74636000       0.24057000       0.30129850
    79  C          0.74636000       0.25943000       0.80129850
    80  C          0.25364000       0.75943000       0.69870150
    81  H          0.25940000       0.85340000       0.17230000
    82  H          0.74060000       0.35340000       0.32770000
    83  H          0.74060000       0.14660000       0.82770000
    84  H          0.25940000       0.64660000       0.67230000
    85  C          0.15614000       0.56137000       0.18961160
    86  C          0.84386000       0.06137000       0.31038840
    87  C          0.84386000       0.43863000       0.81038840
    88  C          0.15614000       0.93863000       0.68961160
    89  H          0.09680000       0.55510000       0.15770000
    90  H          0.90320000       0.05510000       0.34230000
    91  H          0.90320000       0.44490000       0.84230000
    92  H          0.09680000       0.94490000       0.65770000
    93  C          0.14884000       0.39507000       0.22835140
    94  C          0.85116000       0.89507000       0.27164860
    95  C          0.85116000       0.60493000       0.77164860
    96  C          0.14884000       0.10493000       0.72835140
    97  H          0.08470000       0.27380000       0.22260000
    98  H          0.91530000       0.77380000       0.27740000
    99  H          0.91530000       0.72620000       0.77740000
   100  H          0.08470000       0.22620000       0.72260000
   101  C          0.23743000       0.40516000       0.27699130
   102  C          0.76257000       0.90516000       0.22300870
   103  C          0.76257000       0.59484000       0.72300870
   104  C          0.23743000       0.09484000       0.77699130
   105  C          0.23174000       0.23376000       0.31774140
   106  C          0.76826000       0.73376000       0.18225860
   107  C          0.76826000       0.76624000       0.68225860
   108  C          0.23174000       0.26624000       0.81774140
   109  H          0.16680000       0.11410000       0.31110000
   110  H          0.83320000       0.61410000       0.18890000
   111  H          0.83320000       0.88590000       0.68890000
   112  H          0.16680000       0.38590000       0.81110000
   113  N          0.30933000       0.23025000       0.36319110
   114  N          0.69067000       0.73025000       0.13680890
   115  N          0.69067000       0.76975000       0.63680890
   116  N          0.30933000       0.26975000       0.86319110
