data_TOKVOI
_symmetry_space_group_name_H-M    'P1'
_symmetry_Int_Tables_number       1
loop_
_symmetry_equiv_pos_site_id
_symmetry_equiv_pos_as_xyz
1 x,y,z
_cell_length_a                   4.14483
_cell_length_b                   25.481219
_cell_length_c                   12.84939
_cell_angle_alpha                90.0
_cell_angle_beta                 95.8187
_cell_angle_gamma                90.0
loop_
_atom_site_label
_atom_site_type_symbol
_atom_site_fract_x
_atom_site_fract_y
_atom_site_fract_z
     1  I          0.78656600       0.59680200       0.34001200
     2  I          0.21343400       0.09680200       0.15998800
     3  I          0.21343400       0.40319800       0.65998800
     4  I          0.78656600       0.90319800       0.84001200
     5  F          0.57606000       0.51216100       0.71042160
     6  F          0.42394000       0.01216100       0.78957840
     7  F          0.42394000       0.48783900       0.28957840
     8  F          0.57606000       0.98783900       0.21042160
     9  F          0.80406000       0.58517900       0.58949180
    10  F          0.19594000       0.08517900       0.91050820
    11  F          0.19594000       0.41482100       0.41050820
    12  F          0.80406000       0.91482100       0.08949180
    13  C          0.61879000       0.53897150       0.43613000
    14  C          0.38121000       0.03897150       0.06387000
    15  C          0.38121000       0.46102850       0.56387000
    16  C          0.61879000       0.96102850       0.93613000
    17  C          0.53511000       0.50542160       0.60523000
    18  C          0.46489000       0.00542160       0.89477000
    19  C          0.46489000       0.49457840       0.39477000
    20  C          0.53511000      -0.00542160       0.10523000
    21  C          0.65209000       0.54307150       0.54333000
    22  C          0.34791000       0.04307150       0.95667000
    23  C          0.34791000       0.45692850       0.45667000
    24  C          0.65209000       0.95692850       0.04333000
    25  O          0.01227000       0.67359120       0.21852000
    26  O         -0.01227000       0.17359120       0.28148000
    27  O         -0.01227000       0.32640880       0.78148000
    28  O          0.01227000       0.82640880       0.71852000
    29  N          0.88518000       0.67876130       0.12322000
    30  N          0.11482000       0.17876130       0.37678000
    31  N          0.11482000       0.32123870       0.87678000
    32  N          0.88518000       0.82123870       0.62322000
    33  N          0.62558000       0.69201130       0.91368000
    34  N          0.37442000       0.19201130       0.58632000
    35  N          0.37442000       0.30798870       0.08632000
    36  N          0.62558000       0.80798870       0.41368000
    37  C          0.95349000       0.64297160       0.04883000
    38  C          0.04651000       0.14297160       0.45117000
    39  C          0.04651000       0.35702840       0.95117000
    40  C          0.95349000       0.85702840       0.54883000
    41  C          0.55979000       0.72578150       0.98897000
    42  C          0.44021000       0.22578150       0.51103000
    43  C          0.44021000       0.27421850       0.01103000
    44  C          0.55979000       0.77421850       0.48897000
    45  C          0.68639000       0.72017150       0.09653000
    46  C          0.31361000       0.22017150       0.40347000
    47  C          0.31361000       0.27982850       0.90347000
    48  C          0.68639000       0.77982850       0.59653000
    49  C          0.60421000       0.75619160       0.17263000
    50  C          0.39579000       0.25619160       0.32737000
    51  C          0.39579000       0.24380840       0.82737000
    52  C          0.60421000       0.74380840       0.67263000
    53  H          0.68687500       0.75197800       0.24384700
    54  H          0.31312500       0.25197800       0.25615300
    55  H          0.31312500       0.24802200       0.75615300
    56  H          0.68687500       0.74802200       0.74384700
    57  C          0.14891000       0.59964160       0.07543000
    58  C          0.85109000       0.09964160       0.42457000
    59  C          0.85109000       0.40035840       0.92457000
    60  C          0.14891000       0.90035840       0.57543000
    61  H          0.23983300       0.59475100       0.14565100
    62  H          0.76016700       0.09475100       0.35434900
    63  H          0.76016700       0.40524900       0.85434900
    64  H          0.23983300       0.90524900       0.64565100
    65  C          0.81831000       0.65155170       0.94377000
    66  C          0.18169000       0.15155170       0.55623000
    67  C          0.18169000       0.34844830       0.05623000
    68  C          0.81831000       0.84844830       0.44377000
    69  C          0.35721000       0.76999170       0.96327000
    70  C          0.64279000       0.26999170       0.53673000
    71  C          0.64279000       0.23000830       0.03673000
    72  C          0.35721000       0.73000830       0.46327000
    73  H          0.27204800       0.77563700       0.89268200
    74  H          0.72795200       0.27563700       0.60731800
    75  H          0.72795200       0.22436300       0.10731800
    76  H          0.27204800       0.72436300       0.39268200
    77  C          0.89201100       0.61345190       0.86857000
    78  C          0.10798900       0.11345190       0.63143000
    79  C          0.10798900       0.38654810       0.13143000
    80  C          0.89201100       0.88654810       0.36857000
    81  H          0.80758400       0.61792900       0.79766600
    82  H          0.19241600       0.11792900       0.70233400
    83  H          0.19241600       0.38207100       0.20233400
    84  H          0.80758400       0.88207100       0.29766600
    85  C          0.07831100       0.57122000       0.89536000
    86  C          0.92168900       0.07122000       0.60464000
    87  C          0.92168900       0.42878000       0.10464000
    88  C          0.07831100       0.92878000       0.39536000
    89  H          0.12177700       0.54603400       0.84397800
    90  H          0.87822300       0.04603400       0.65602200
    91  H          0.87822300       0.45396600       0.15602200
    92  H          0.12177700       0.95396600       0.34397800
    93  C          0.40611000       0.79687170       0.14313000
    94  C          0.59389000       0.29687170       0.35687000
    95  C          0.59389000       0.20312830       0.85687000
    96  C          0.40611000       0.70312830       0.64313000
    97  H          0.34759500       0.82111400       0.19415100
    98  H          0.65240500       0.32111400       0.30584900
    99  H          0.65240500       0.17888600       0.80584900
   100  H          0.34759500       0.67888600       0.69415100
   101  C          0.28541000       0.80366180       0.03753000
   102  C          0.71459000       0.30366180       0.46247000
   103  C          0.71459000       0.19633820       0.96247000
   104  C          0.28541000       0.69633820       0.53753000
   105  H          0.14980100       0.83288300       0.01841400
   106  H          0.85019900       0.33288300       0.48158600
   107  H          0.85019900       0.16711700       0.98158600
   108  H          0.14980100       0.66711700       0.51841400
   109  C          0.20861000       0.56464180       0.00104000
   110  C          0.79139000       0.06464180       0.49896000
   111  C          0.79139000       0.43535820      -0.00104000
   112  C          0.20861000       0.93535820       0.50104000
   113  H          0.34070100       0.53497100       0.01974000
   114  H          0.65929900       0.03497100       0.48026000
   115  H          0.65929900       0.46502900       0.98026000
   116  H          0.34070100       0.96502900       0.51974000
