data_TOKVIC
_symmetry_space_group_name_H-M    'P1'
_symmetry_Int_Tables_number       1
loop_
_symmetry_equiv_pos_site_id
_symmetry_equiv_pos_as_xyz
1 x,y,z
_cell_length_a                   12.085817
_cell_length_b                   4.43285
_cell_length_c                   29.2583
_cell_angle_alpha                90.0
_cell_angle_beta                 90.8571
_cell_angle_gamma                90.0
loop_
_atom_site_label
_atom_site_type_symbol
_atom_site_fract_x
_atom_site_fract_y
_atom_site_fract_z
     1  I          0.20625500       0.90662150       0.66235200
     2  I          0.79374500       0.40662150       0.83764800
     3  I          0.79374500       0.09337850       0.33764800
     4  I          0.20625500       0.59337850       0.16235200
     5  I          0.22677600       0.23801150       0.44618200
     6  I          0.77322400       0.73801150       0.05381800
     7  I          0.77322400       0.76198850       0.55381800
     8  I          0.22677600       0.26198850       0.94618200
     9  F          0.03774000       0.49921400       0.60623180
    10  F          0.96226000      -0.00078600       0.89376820
    11  F          0.96226000       0.50078600       0.39376820
    12  F          0.03774000       0.00078600       0.10623180
    13  F          0.04665000       0.23601200       0.52477190
    14  F          0.95335000       0.73601200       0.97522810
    15  F          0.95335000       0.76398800       0.47522810
    16  F          0.04665000       0.26398800       0.02477190
    17  F          0.39024000       0.92601300       0.58343190
    18  F          0.60976000       0.42601300       0.91656810
    19  F          0.60976000       0.07398700       0.41656810
    20  F          0.39024000       0.57398700       0.08343190
    21  F          0.39764000       0.66311400       0.50142190
    22  F          0.60236000       0.16311400      -0.00142190
    23  F          0.60236000       0.33688600       0.49857810
    24  F          0.39764000       0.83688600       0.00142190
    25  C          0.12917000       0.53620000       0.58063000
    26  C          0.87083000       0.03620000       0.91937000
    27  C          0.87083000       0.46380000       0.41937000
    28  C          0.12917000       0.96380000       0.08063000
    29  C          0.21427000       0.71371900       0.59723000
    30  C          0.78573000       0.21371900       0.90277000
    31  C          0.78573000       0.28628100       0.40277000
    32  C          0.21427000       0.78628100       0.09723000
    33  C          0.30477000       0.75020000       0.56923000
    34  C          0.69523000       0.25020000       0.93077000
    35  C          0.69523000       0.24980000       0.43077000
    36  C          0.30477000       0.74980000       0.06923000
    37  C          0.22308000       0.44320000       0.51063000
    38  C          0.77692000       0.94320000       0.98937000
    39  C          0.77692000       0.55680000       0.48937000
    40  C          0.22308000       0.05680000       0.01063000
    41  C          0.13308000       0.40420000       0.53863000
    42  C          0.86692000       0.90420000       0.96137000
    43  C          0.86692000       0.59580000       0.46137000
    44  C          0.13308000       0.09580000       0.03863000
    45  C          0.30828000       0.61820000       0.52643000
    46  C          0.69172000       0.11820000       0.97357000
    47  C          0.69172000       0.38180000       0.47357000
    48  C          0.30828000       0.88180000       0.02643000
    49  O          0.15696000       0.15671600       0.74912000
    50  O          0.84304000       0.65671600       0.75088000
    51  O          0.84304000       0.84328400       0.25088000
    52  O          0.15696000       0.34328400       0.24912000
    53  N          0.17696000      -0.02998300       0.78272000
    54  N          0.82304000       0.47001700       0.71728000
    55  N          0.82304000       0.02998300       0.21728000
    56  N          0.17696000       0.52998300       0.28272000
    57  N          0.21876000       0.58661700       0.85683000
    58  N          0.78124000       0.08661700       0.64317000
    59  N          0.78124000       0.41338300       0.14317000
    60  N          0.21876000       0.91338300       0.35683000
    61  C          0.28436000       0.95141900       0.80093000
    62  C          0.71564000       0.45141900       0.69907000
    63  C          0.71564000       0.04858100       0.19907000
    64  C          0.28436000       0.54858100       0.30093000
    65  C          0.29927000       0.76120000       0.83803000
    66  C          0.70073000       0.26120000       0.66197000
    67  C          0.70073000       0.23880000       0.16197000
    68  C          0.29927000       0.73880000       0.33803000
    69  C          0.12168000       0.61420000       0.83723000
    70  C          0.87832000       0.11420000       0.66277000
    71  C          0.87832000       0.38580000       0.16277000
    72  C          0.12168000       0.88580000       0.33723000
    73  H          0.06361800       0.49312600       0.84888000
    74  H          0.93638200      -0.00687400       0.65112000
    75  H          0.93638200       0.50687400       0.15112000
    76  H          0.06361800       0.00687400       0.34888000
    77  C          0.37068000       0.12120000       0.78253000
    78  C          0.62932000       0.62120000       0.71747000
    79  C          0.62932000       0.87880000       0.21747000
    80  C          0.37068000       0.37880000       0.28253000
    81  H          0.35830500       0.25092000       0.75714100
    82  H          0.64169500       0.75092000       0.74285900
    83  H          0.64169500       0.74908000       0.24285900
    84  H          0.35830500       0.24908000       0.25714100
    85  C          0.09498000       0.80620000       0.80053000
    86  C          0.90502000       0.30620000       0.69947000
    87  C          0.90502000       0.19380000       0.19947000
    88  C          0.09498000       0.69380000       0.30053000
    89  H          0.02141200       0.81924300       0.78875400
    90  H          0.97858800       0.31924300       0.71124600
    91  H          0.97858800       0.18075700       0.21124600
    92  H          0.02141200       0.68075700       0.28875400
    93  C          0.40638000       0.74520000       0.85744000
    94  C          0.59362000       0.24520000       0.64256000
    95  C          0.59362000       0.25480000       0.14256000
    96  C          0.40638000       0.75480000       0.35744000
    97  H          0.41981900       0.61834500       0.88313200
    98  H          0.58018100       0.11834500       0.61686800
    99  H          0.58018100       0.38165500       0.11686800
   100  H          0.41981900       0.88165500       0.38313200
   101  C          0.49308000       0.91320000       0.83914000
   102  C          0.50692000       0.41320000       0.66086000
   103  C          0.50692000       0.08680000       0.16086000
   104  C          0.49308000       0.58680000       0.33914000
   105  H          0.56523900       0.90190200       0.85229000
   106  H          0.43476100       0.40190200       0.64771000
   107  H          0.43476100       0.09809800       0.14771000
   108  H          0.56523900       0.59809800       0.35229000
   109  C          0.47258000       0.09320000       0.80224000
   110  C          0.52742000       0.59320000       0.69776000
   111  C          0.52742000       0.90680000       0.19776000
   112  C          0.47258000       0.40680000       0.30224000
   113  H          0.53217400       0.20302300       0.78960700
   114  H          0.46782600       0.70302300       0.71039300
   115  H          0.46782600       0.79697700       0.21039300
   116  H          0.53217400       0.29697700       0.28960700
