data_TOKXAW
_symmetry_space_group_name_H-M    'P1'
_symmetry_Int_Tables_number       1
loop_
_symmetry_equiv_pos_site_id
_symmetry_equiv_pos_as_xyz
1 x,y,z
_cell_length_a                   13.770818
_cell_length_b                   5.79518
_cell_length_c                   16.4222
_cell_angle_alpha                90.0
_cell_angle_beta                 106.7594
_cell_angle_gamma                90.0
loop_
_atom_site_label
_atom_site_type_symbol
_atom_site_fract_x
_atom_site_fract_y
_atom_site_fract_z
     1  I          0.75605200       0.29855600       0.89338200
     2  I          0.74394800       0.79855600       0.60661800
     3  I          0.24394800       0.70144400       0.10661800
     4  I          0.25605200       0.20144400       0.39338200
     5  F          0.88022000       0.75355000       0.87121170
     6  F          0.61978000       0.25355000       0.62878830
     7  F          0.11978000       0.24645000       0.12878830
     8  F          0.38022000       0.74645000       0.37121170
     9  F          0.93432000       0.09805000       0.04959180
    10  F          0.56568000       0.59805000       0.45040820
    11  F          0.06568000       0.90195000       0.95040820
    12  F          0.43432000       0.40195000       0.54959180
    13  C          0.90134000       0.42228000       0.95873000
    14  C          0.59866000       0.92228000       0.54127000
    15  C          0.09866000       0.57772000       0.04127000
    16  C          0.40134000       0.07772000       0.45873000
    17  C          0.93834000       0.62509000       0.93563000
    18  C          0.56166000       0.12509000       0.56437000
    19  C          0.06166000       0.37491000       0.06437000
    20  C          0.43834000       0.87491000       0.43563000
    21  C          0.96514000       0.29828000       0.02393000
    22  C          0.53486000       0.79828000       0.47607000
    23  C          0.03486000       0.70172000       0.97607000
    24  C          0.46514000       0.20172000       0.52393000
    25  C          0.47734000       0.12959000       0.77283000
    26  C          0.02266000       0.62959000       0.72717000
    27  C          0.52266000       0.87041000       0.22717000
    28  C          0.97734000       0.37041000       0.27283000
    29  H          0.45913700       0.27248700       0.79259000
    30  H          0.04086300       0.77248700       0.70741000
    31  H          0.54086300       0.72751300       0.20741000
    32  H          0.95913700       0.22751300       0.29259000
    33  N          0.57333000       0.06507000       0.80263000
    34  N          0.92667000       0.56507000       0.69737000
    35  N          0.42667000       0.93493000       0.19737000
    36  N          0.07333000       0.43493000       0.30263000
    37  C          0.42954000       0.81109000       0.69133000
    38  C          0.07046000       0.31109000       0.80867000
    39  C          0.57046000       0.18891000       0.30867000
    40  C          0.92954000       0.68891000       0.19133000
    41  H          0.37897500       0.72245700       0.65223000
    42  H          0.12102500       0.22245700       0.84777000
    43  H          0.62102500       0.27754300       0.34777000
    44  H          0.87897500       0.77754300       0.15223000
    45  N          0.40383000       0.01228000       0.71753000
    46  N          0.09617000       0.51228000       0.78247000
    47  N          0.59617000      -0.01228000       0.28247000
    48  N          0.90383000       0.48772000       0.21753000
    49  C          0.52744000       0.72581000       0.71903000
    50  C          0.97256000       0.22581000       0.78097000
    51  C          0.47256000       0.27419000       0.28097000
    52  C          0.02744000       0.77419000       0.21903000
    53  H          0.54510100       0.58088800       0.70033300
    54  H          0.95489900       0.08088800       0.79966700
    55  H          0.45489900       0.41911200       0.29966700
    56  H          0.04510100       0.91911200       0.20033300
    57  C          0.59814000       0.86211000       0.77513000
    58  C          0.90186000       0.36211000       0.72487000
    59  C          0.40186000       0.13789000       0.22487000
    60  C          0.09814000       0.63789000       0.27513000
    61  H          0.66635100       0.81051300       0.79488000
    62  H          0.83364900       0.31051300       0.70512000
    63  H          0.33364900       0.18948700       0.20512000
    64  H          0.16635100       0.68948700       0.29488000
    65  I          0.21477200       0.22289600       0.63099200
    66  I          0.28522800       0.72289600       0.86900800
    67  I          0.78522800       0.77710400       0.36900800
    68  I          0.71477200       0.27710400       0.13099200
    69  F          0.18712000       0.68425000       0.51981190
    70  F          0.31288000       0.18425000       0.98018810
    71  F          0.81288000       0.31575000       0.48018810
    72  F          0.68712000       0.81575000       0.01981190
    73  F          0.02422000       0.89755000       0.42121180
    74  F          0.47578000       0.39755000       0.07878820
    75  F          0.97578000       0.10245000       0.57878820
    76  F          0.52422000       0.60245000       0.92121180
    77  C          0.01004000       0.69979000       0.45973000
    78  C          0.48996000       0.19979000       0.04027000
    79  C         -0.01004000       0.30021000       0.54027000
    80  C          0.51004000       0.80021000       0.95973000
    81  C          0.09503000       0.59009000       0.51103000
    82  C          0.40497000       0.09009000       0.98897000
    83  C          0.90497000       0.40991000       0.48897000
    84  C          0.59503000       0.90991000       0.01103000
    85  C          0.08614000       0.38819000       0.55323000
    86  C          0.41386000       0.88819000       0.94677000
    87  C          0.91386000       0.61181000       0.44677000
    88  C          0.58614000       0.11181000       0.05323000
