data_TOKXEA
_symmetry_space_group_name_H-M    'P1'
_symmetry_Int_Tables_number       1
loop_
_symmetry_equiv_pos_site_id
_symmetry_equiv_pos_as_xyz
1 x,y,z
_cell_length_a                   13.71188
_cell_length_b                   4.65742
_cell_length_c                   14.00268
_cell_angle_alpha                90.0
_cell_angle_beta                 118.0152
_cell_angle_gamma                90.0
loop_
_atom_site_label
_atom_site_type_symbol
_atom_site_fract_x
_atom_site_fract_y
_atom_site_fract_z
     1  I          0.19669200       0.59209300       0.53653200
     2  I          0.80330800       0.09209300       0.96346800
     3  I          0.80330800       0.40790700       0.46346800
     4  I          0.19669200       0.90790700       0.03653200
     5  I          0.03917200       0.78696300       0.66674200
     6  I          0.96082800       0.28696300       0.83325800
     7  I          0.96082800       0.21303700       0.33325800
     8  I          0.03917200       0.71303700       0.16674200
     9  C          0.04394150       0.56834000       0.53743150
    10  C          0.95605850       0.06834000       0.96256850
    11  C          0.95605850       0.43166000       0.46256850
    12  C          0.04394150       0.93166000       0.03743150
    13  N          0.40292130       0.56253000       0.50422130
    14  N          0.59707870       0.06253000      -0.00422130
    15  N          0.59707870       0.43747000       0.49577870
    16  N          0.40292130       0.93747000       0.00422130
    17  C          0.40337150       0.37094000       0.43236150
    18  C          0.59662850       0.87094000       0.06763850
    19  C          0.59662850       0.62906000       0.56763850
    20  C          0.40337150       0.12906000       0.93236150
    21  C          0.49857150       0.69184000       0.57136150
    22  C          0.50142850       0.19184000       0.92863850
    23  C          0.50142850       0.30816000       0.42863850
    24  C          0.49857150       0.80816000       0.07136150
    25  C          0.29628160       0.22684000       0.35739170
    26  C          0.70371840       0.72684000       0.14260830
    27  C          0.70371840       0.77316000       0.64260830
    28  C          0.29628160       0.27316000       0.85739170
    29  H          0.30071200       0.02205200       0.37510600
    30  H          0.69928800       0.52205200       0.12489400
    31  H          0.69928800      -0.02205200       0.62489400
    32  H          0.30071200       0.47794800       0.87510600
    33  H          0.28249800       0.24943000       0.28250100
    34  H          0.71750200       0.74943000       0.21749900
    35  H          0.71750200       0.75057000       0.71749900
    36  H          0.28249800       0.25057000       0.78250100
    37  H          0.23580900       0.31502300       0.36570000
    38  H          0.76419100       0.81502300       0.13430000
    39  H          0.76419100       0.68497700       0.63430000
    40  H          0.23580900       0.18497700       0.86570000
    41  C          0.49651160       0.90634000       0.65054160
    42  C          0.50348840       0.40634000       0.84945840
    43  C          0.50348840       0.09366000       0.34945840
    44  C          0.49651160       0.59366000       0.15054160
    45  H          0.41994200       0.94008100       0.63506800
    46  H          0.58005800       0.44008100       0.86493200
    47  H          0.58005800       0.05991900       0.36493200
    48  H          0.41994200       0.55991900       0.13506800
    49  H          0.52939100       0.08714600       0.64397700
    50  H          0.47060900       0.58714600       0.85602300
    51  H          0.47060900       0.91285400       0.35602300
    52  H          0.52939100       0.41285400       0.14397700
    53  H          0.53885600       0.83139900       0.72421800
    54  H          0.46114400       0.33139900       0.77578200
    55  H          0.46114400       0.16860100       0.27578200
    56  H          0.53885600       0.66860100       0.22421800
