data_TOLSAP
_symmetry_space_group_name_H-M    'P1'
_symmetry_Int_Tables_number       1
loop_
_symmetry_equiv_pos_site_id
_symmetry_equiv_pos_as_xyz
1 x,y,z
_cell_length_a                   10.501718
_cell_length_b                   11.4125
_cell_length_c                   11.5473
_cell_angle_alpha                96.4045
_cell_angle_beta                 111.11419
_cell_angle_gamma                115.9281
loop_
_atom_site_label
_atom_site_type_symbol
_atom_site_fract_x
_atom_site_fract_y
_atom_site_fract_z
     1  B          0.50072000       0.73212000       0.75113190
     2  B          0.49928000       0.26788000       0.24886810
     3  N          0.56591190       0.62921170       0.74325160
     4  N          0.43408810       0.37078830       0.25674840
     5  F          0.14752110       0.64454120       0.60910100
     6  F          0.85247890       0.35545880       0.39089900
     7  F          0.93302880       0.50999130       0.68179120
     8  F          0.06697120       0.49000870       0.31820880
     9  F          0.00592140       0.42702130       0.89561120
    10  F         -0.00592140       0.57297870       0.10438880
    11  F          0.31214140       0.49942130       0.04462100
    12  F          0.68785860       0.50057870       0.95537900
    13  F          0.53763120       0.64544120       0.97830100
    14  F          0.46236880       0.35455880       0.02169900
    15  F          0.54562120       0.89880120       0.00297100
    16  F          0.45437880       0.10119880      -0.00297100
    17  F          0.79958140       0.13930120       0.15989110
    18  F          0.20041860       0.86069880       0.84010890
    19  F          0.04917130       0.25999120       0.10678120
    20  F          0.95082870       0.74000880       0.89321880
    21  F          0.03967130       0.13010130       0.89087120
    22  F          0.96032870       0.86989870       0.10912880
    23  F          0.78897120       0.88425120       0.73391100
    24  F          0.21102880       0.11574880       0.26608900
    25  F          0.40306120       0.92734110       0.70633100
    26  F          0.59693880       0.07265890       0.29366900
    27  F          0.29564130       0.97954120       0.48333120
    28  F          0.70435870       0.02045880       0.51666880
    29  F          0.27329140       0.84307130       0.26433110
    30  F          0.72670860       0.15692870       0.73566890
    31  F          0.35145140       0.64634130       0.27118100
    32  F          0.64854860       0.35365870       0.72881900
    33  F          0.45265130       0.58895120       0.48853100
    34  F          0.54734870       0.41104880       0.51146900
    35  C          0.35712000       0.65353180       0.78995160
    36  C          0.64288000       0.34646820       0.21004840
    37  C          0.19922000       0.61327190       0.71956170
    38  C          0.80078000       0.38672810       0.28043830
    39  C          0.08272000       0.54082000       0.75424180
    40  C          0.91728000       0.45918000       0.24575820
    41  C          0.11912000       0.50062000       0.86284180
    42  C          0.88088000       0.49938000       0.13715820
    43  C          0.27382000       0.53732000       0.93698170
    44  C          0.72618000       0.46268000       0.06301830
    45  C          0.38622000       0.61111190       0.89993170
    46  C          0.61378000       0.38888810       0.10006830
    47  C          0.65321190       0.87886180       0.85932160
    48  C          0.34678810       0.12113820       0.14067840
    49  C          0.66442000       0.95032000       0.96968180
    50  C          0.33558000       0.04968000       0.03031820
    51  C          0.79512000       0.07632000       0.05250180
    52  C          0.20488000       0.92368000       0.94749820
    53  C          0.92142000       0.13752000       0.02671190
    54  C          0.07858000       0.86248000       0.97328810
    55  C          0.91702000       0.07142000       0.91824190
    56  C          0.08298000       0.92858000       0.08175810
    57  C          0.78572000       0.94482000       0.83891170
    58  C          0.21428000       0.05518000       0.16108830
    59  C          0.43902180       0.75903180       0.61083160
    60  C          0.56097820       0.24096820       0.38916840
    61  C          0.39585190       0.85743190       0.60070170
    62  C          0.60414810       0.14256810       0.39929830
    63  C          0.33832000       0.88493190       0.48672180
    64  C          0.66168000       0.11506810       0.51327820
    65  C          0.32592000       0.81562000       0.37582170
    66  C          0.67408000       0.18438000       0.62417830
    67  C          0.36722000       0.71822000       0.37944170
    68  C          0.63278000       0.28178000       0.62055830
    69  C          0.42099190       0.69148180       0.49535170
    70  C          0.57900810       0.30851820       0.50464830
    71  H          0.63230000       0.64820000       0.70320000
    72  H          0.36770000       0.35180000       0.29680000
    73  H          0.62330000       0.63020000       0.82320000
    74  H          0.37670000       0.36980000       0.17680000
    75  H          0.48430000       0.53820000       0.70120000
    76  H          0.51570000       0.46180000       0.29880000
    77  N          0.29731190       0.35310170       0.63085160
    78  N          0.70268810       0.64689830       0.36914840
    79  C          0.17273000       0.30103000       0.51653000
    80  C          0.82727000       0.69897000       0.48347000
    81  H          0.16380000       0.35990000       0.46870000
    82  H          0.83620000       0.64010000       0.53130000
    83  C          0.05453000       0.16533000       0.46263000
    84  C          0.94547000       0.83467000       0.53737000
    85  H          0.96900000       0.13510000       0.38080000
    86  H          0.03100000       0.86490000       0.61920000
    87  C          0.06112000       0.07391190       0.52794170
    88  C          0.93888000       0.92608810       0.47205830
    89  C          0.19103000       0.12782000       0.64752000
    90  C          0.80897000       0.87218000       0.35248000
    91  H          0.20330000       0.07120000       0.69710000
    92  H          0.79670000       0.92880000       0.30290000
    93  C          0.30313000       0.26512000       0.69412000
    94  C          0.69687000       0.73488000       0.30588000
    95  H          0.38950000       0.29850000       0.77630000
    96  H          0.61050000       0.70150000       0.22370000
