data_TOMVID
_symmetry_space_group_name_H-M    'P1'
_symmetry_Int_Tables_number       1
loop_
_symmetry_equiv_pos_site_id
_symmetry_equiv_pos_as_xyz
1 x,y,z
_cell_length_a                   7.41792
_cell_length_b                   9.24232
_cell_length_c                   12.27453
_cell_angle_alpha                78.61401
_cell_angle_beta                 72.73001
_cell_angle_gamma                81.14501
loop_
_atom_site_label
_atom_site_type_symbol
_atom_site_fract_x
_atom_site_fract_y
_atom_site_fract_z
     1  O          0.24862130       0.31237120       0.03238900
     2  O          0.75137870       0.68762880       0.96761100
     3  O          0.82995850       0.21837140       0.00321100
     4  O          0.17004150       0.78162860      -0.00321100
     5  O          0.94823850       0.37237140       0.12743100
     6  O          0.05176150       0.62762860       0.87256900
     7  O          0.12147150       0.19728150       0.88588900
     8  O          0.87852850       0.80271850       0.11411100
     9  C          0.06802000       0.31557150       0.05242110
    10  C          0.93198000       0.68442850       0.94757890
    11  C          0.00882000       0.23563150       0.97083880
    12  C         -0.00882000       0.76436850       0.02916120
    13  H          0.27840000       0.37530000       0.10420000
    14  H          0.72160000       0.62470000       0.89580000
    15  H          0.80670000       0.17130000       0.94180000
    16  H          0.19330000       0.82870000       0.05820000
    17  N          0.10105160       0.71738130       0.48665100
    18  N          0.89894840       0.28261870       0.51334900
    19  N          0.95064840       0.79124130       0.56160100
    20  N          0.04935160       0.20875870       0.43839900
    21  N          0.74317830       0.08477130       0.86025100
    22  N          0.25682170       0.91522870       0.13974900
    23  N          0.32318170       0.44516130       0.17636100
    24  N          0.67681830       0.55483870       0.82363900
    25  C          0.50102000       0.44378170       0.17855130
    26  C          0.49898000       0.55621830       0.82144870
    27  H          0.59850000       0.39590000       0.12660000
    28  H          0.40150000       0.60410000       0.87340000
    29  C          0.54372000       0.51222000       0.25667150
    30  C          0.45628000       0.48778000       0.74332850
    31  H          0.66910000       0.51040000       0.25740000
    32  H          0.33090000       0.48960000       0.74260000
    33  C          0.40002000       0.58298180       0.33340140
    34  C          0.59998000       0.41701820       0.66659860
    35  H          0.42750000       0.62900000       0.38660000
    36  H          0.57250000       0.37100000       0.61340000
    37  C          0.21239190       0.58570140       0.33131110
    38  C          0.78760810       0.41429860       0.66868890
    39  C          0.05267190       0.66353140       0.41195110
    40  C          0.94732810       0.33646860       0.58804890
    41  C          0.00308190       0.86068140       0.62571110
    42  C         -0.00308190       0.13931860       0.37428890
    43  C          0.84661810       0.93849140       0.70768110
    44  C          0.15338190       0.06150860       0.29231890
    45  C          0.88108000       0.01292150       0.78600120
    46  C          0.11892000       0.98707850       0.21399880
    47  H          0.00590000       0.01290000       0.78700000
    48  H         -0.00590000       0.98710000       0.21300000
    49  C          0.56428000       0.08650170       0.85972130
    50  C          0.43572000       0.91349830       0.14027870
    51  H          0.46870000       0.13780000       0.91040000
    52  H          0.53130000       0.86220000       0.08960000
    53  C          0.18152000       0.51435150       0.25039120
    54  C          0.81848000       0.48564850       0.74960880
    55  H          0.05780000       0.51440000       0.24730000
    56  H          0.94220000       0.48560000       0.75270000
    57  C          0.20452000       0.86955190       0.62327140
    58  C          0.79548000       0.13044810       0.37672860
    59  H          0.28870000       0.81470000       0.56620000
    60  H          0.71130000       0.18530000       0.43380000
    61  H          0.22280000       0.82820000       0.69780000
    62  H          0.77720000       0.17180000       0.30220000
    63  H          0.23080000       0.97140000       0.60420000
    64  H          0.76920000       0.02860000       0.39580000
    65  C          0.65738000       0.93970180       0.70911140
    66  C          0.34262000       0.06029820       0.29088860
    67  H          0.62690000       0.89080000       0.65870000
    68  H          0.37310000       0.10920000       0.34130000
    69  C          0.51688000       0.01352000       0.78538150
    70  C          0.48312000       0.98648000       0.21461850
    71  H          0.39050000       0.01460000       0.78710000
    72  H          0.60950000       0.98540000       0.21290000
    73  C          0.85618000       0.67397170       0.39915130
    74  C          0.14382000       0.32602830       0.60084870
    75  H          0.76930000       0.72660000       0.45680000
    76  H          0.23070000       0.27340000       0.54320000
    77  H          0.81970000       0.57600000       0.40880000
    78  H          0.18030000       0.42400000       0.59120000
    79  H          0.85380000       0.72600000       0.32360000
    80  H          0.14620000       0.27400000       0.67640000
