data_TOMXEA
_symmetry_space_group_name_H-M    'P1'
_symmetry_Int_Tables_number       1
loop_
_symmetry_equiv_pos_site_id
_symmetry_equiv_pos_as_xyz
1 x,y,z
_cell_length_a                   7.6543
_cell_length_b                   9.5584
_cell_length_c                   12.7575
_cell_angle_alpha                84.0724
_cell_angle_beta                 85.6114
_cell_angle_gamma                71.4164
loop_
_atom_site_label
_atom_site_type_symbol
_atom_site_fract_x
_atom_site_fract_y
_atom_site_fract_z
     1  C          0.36368170       0.11760130       0.60017100
     2  C          0.63631830       0.88239870       0.39982900
     3  C          0.18520170       0.19631140       0.56744100
     4  C          0.81479830       0.80368860       0.43255900
     5  C          0.15886180       0.32337140       0.49822900
     6  C          0.84113820       0.67662860       0.50177100
     7  H          0.03840000       0.37700000       0.47580000
     8  H          0.96160000       0.62300000       0.52420000
     9  C          0.30656190       0.37242150       0.46165890
    10  C          0.69343810       0.62757850       0.53834110
    11  H          0.28760000       0.46010000       0.41560000
    12  H          0.71240000       0.53990000       0.58440000
    13  C          0.48226180       0.29148150       0.49327900
    14  C          0.51773820       0.70851850       0.50672100
    15  H          0.58390000       0.32400000       0.46780000
    16  H          0.41610000       0.67600000       0.53220000
    17  C          0.51251170       0.16392140       0.56145900
    18  C          0.48748830       0.83607860       0.43854100
    19  H          0.63390000       0.10880000       0.58140000
    20  H          0.36610000       0.89120000       0.41860000
    21  C          0.55222170       0.92169140       0.71275900
    22  C          0.44777830       0.07830860       0.28724100
    23  H          0.61130000      -0.00770000       0.73350000
    24  H          0.38870000       0.00770000       0.26650000
    25  H          0.63300000       0.86240000       0.65820000
    26  H          0.36700000       0.13760000       0.34180000
    27  C          0.52378170       0.82142130       0.80750900
    28  C          0.47621830       0.17857870       0.19249100
    29  C          0.02564180       0.14702150       0.60567900
    30  C          0.97435820       0.85297850       0.39432100
    31  H          0.04750000       0.04690000       0.63280000
    32  H          0.95250000       0.95310000       0.36720000
    33  O          0.37602110      -0.00037100       0.67265300
    34  O          0.62397890       0.00037100       0.32734700
    35  O          0.68054120       0.71803100       0.82991200
    36  O          0.31945880       0.28196900       0.17008800
    37  H          0.66630000       0.66950000       0.88690000
    38  H          0.33370000       0.33050000       0.11310000
    39  O          0.37829120       0.83711100       0.85707300
    40  O          0.62170880       0.16288900       0.14292700
    41  O          0.86779870       0.22909120       0.60387200
    42  O          0.13220130       0.77090880       0.39612800
    43  C         -0.00709820       0.32669140       0.83817900
    44  C          0.00709820       0.67330860       0.16182100
    45  H         -0.00480000       0.36130000       0.76570000
    46  H          0.00480000       0.63870000       0.23430000
    47  C          0.10639180       0.18491150       0.86777890
    48  C          0.89360820       0.81508850       0.13222110
    49  H          0.18170000       0.12370000       0.81690000
    50  H          0.81830000       0.87630000       0.18310000
    51  C          0.10652180       0.13565140       0.97332890
    52  C          0.89347820       0.86434860       0.02667110
    53  H          0.18370000       0.03980000      -0.00320000
    54  H          0.81630000       0.96020000       0.00320000
    55  C         -0.00819830       0.22842140       0.04517100
    56  C          0.00819830       0.77157860       0.95482900
    57  C          0.87937160       0.36794130       0.00719900
    58  C          0.12062840       0.63205870      -0.00719900
    59  C         -0.00933830       0.17910140       0.15916100
    60  C          0.00933830       0.82089860       0.84083900
    61  C          0.86928180       0.29109150       0.23477100
    62  C          0.13071820       0.70890850       0.76522900
    63  C          0.74264180       0.43213140       0.18790100
    64  C          0.25735820       0.56786860       0.81209900
    65  C          0.74825170       0.46954130       0.07876900
    66  C          0.25174830       0.53045870       0.92123100
    67  C          0.61417190       0.53018150       0.25142100
    68  C          0.38582810       0.46981850       0.74857900
    69  H          0.60950000       0.50910000       0.32580000
    70  H          0.39050000       0.49090000       0.67420000
    71  C          0.49410190       0.65782150       0.20518110
    72  C          0.50589810       0.34217850       0.79481890
    73  H          0.40250000       0.72440000       0.24650000
    74  H          0.59750000       0.27560000       0.75350000
    75  C          0.51088180       0.68630140       0.09636100
    76  C          0.48911820       0.31369860       0.90363900
    77  H          0.42930000       0.77490000       0.06460000
    78  H          0.57070000       0.22510000       0.93540000
    79  N          0.88079150       0.41750110       0.90499200
    80  N          0.11920850       0.58249890       0.09500800
    81  N          0.63559140       0.59587110       0.03388800
    82  N          0.36440860       0.40412890       0.96611200
    83  O          0.08223130       0.05676100       0.19440800
    84  O          0.91776870       0.94323900       0.80559200
    85  O          0.88014140       0.26040120       0.32946700
    86  O          0.11985860       0.73959880       0.67053300
