data_TONHIQ
_symmetry_space_group_name_H-M    'P1'
_symmetry_Int_Tables_number       1
loop_
_symmetry_equiv_pos_site_id
_symmetry_equiv_pos_as_xyz
1 x,y,z
_cell_length_a                   7.24992
_cell_length_b                   13.71116
_cell_length_c                   15.82817
_cell_angle_alpha                71.2554
_cell_angle_beta                 85.1723
_cell_angle_gamma                83.6693
loop_
_atom_site_label
_atom_site_type_symbol
_atom_site_fract_x
_atom_site_fract_y
_atom_site_fract_z
     1  Cl         0.93506890       0.59777700       0.74606500
     2  Cl         0.06493110       0.40222300       0.25393500
     3  O          0.32243000       0.56188140       0.37119130
     4  O          0.67757000       0.43811860       0.62880870
     5  O          0.43873000       0.59322160       0.23123130
     6  O          0.56127000       0.40677840       0.76876870
     7  H          0.47450000       0.52230000       0.25330000
     8  H          0.52550000       0.47770000       0.74670000
     9  N          0.18563000       0.88820160       0.31162160
    10  N          0.81437000       0.11179840       0.68837840
    11  N          0.16523000       0.72548170       0.41835150
    12  N          0.83477000       0.27451830       0.58164850
    13  H          0.20340000       0.66220000       0.42621900
    14  H          0.79660000       0.33780000       0.57378100
    15  C          0.31063000       0.73634190       0.27306170
    16  C          0.68937000       0.26365810       0.72693830
    17  C          0.36714000       0.79962000       0.18929180
    18  C          0.63286000       0.20038000       0.81070820
    19  H          0.42978400       0.76952600       0.14725900
    20  H          0.57021600       0.23047400       0.85274100
    21  C          0.33314000       0.90592000       0.16638190
    22  C          0.66686000       0.09408000       0.83361810
    23  H          0.37048700       0.94984600       0.10907300
    24  H          0.62951300       0.05015400       0.89092700
    25  C          0.24324000       0.94542000       0.22972000
    26  C          0.75676000       0.05458000       0.77028000
    27  H          0.22019600       0.01840800       0.21444100
    28  H          0.77980400       0.98159200       0.78555900
    29  C          0.21833000       0.78555190       0.33362170
    30  C          0.78167000       0.21444810       0.66637830
    31  C          0.35594000       0.62292000       0.29704180
    32  C          0.64406000       0.37708000       0.70295820
    33  C          0.07633000       0.75210190       0.49127170
    34  C          0.92367000       0.24789810       0.50872830
    35  C          0.00394000       0.85222000       0.48619190
    36  C         -0.00394000       0.14778000       0.51380810
    37  H          0.01686200       0.90705000       0.43176000
    38  H          0.98313800       0.09295000       0.56824000
    39  C          0.91286000       0.87182000       0.56042000
    40  C          0.08714000       0.12818000       0.43958000
    41  H          0.86450100       0.94032900       0.55621000
    42  H          0.13549900       0.05967100       0.44379000
    43  C          0.89126000       0.79352000       0.64042000
    44  C          0.10874000       0.20648000       0.35958000
    45  H          0.82782400       0.80698700       0.69107500
    46  H          0.17217600       0.19301300       0.30892500
    47  C          0.96556000       0.69472000       0.64417180
    48  C          0.03444000       0.30528000       0.35582820
    49  C          0.05873000       0.67032000       0.57231180
    50  C          0.94127000       0.32968000       0.42768820
    51  C          0.13714000       0.56132000       0.58042000
    52  C          0.86286000       0.43868000       0.41958000
    53  H          0.26845200       0.56133400       0.55986600
    54  H          0.73154800       0.43866600       0.44013400
    55  H          0.06814300       0.53387300       0.54370900
    56  H          0.93185700       0.46612700       0.45629100
    57  H          0.12567400       0.51788300       0.64300900
    58  H          0.87432600       0.48211700       0.35699100
    59  Cl         0.19263150       0.07296800       0.93848700
    60  Cl         0.80736850       0.92703200       0.06151300
    61  Cl         0.09459180       0.29564800       0.86644100
    62  Cl         0.90540820       0.70435200       0.13355900
    63  C          0.07647000       0.18093000       0.96083000
    64  C          0.92353000       0.81907000       0.03917000
    65  H          0.12968600       0.19057900       0.01285500
    66  H          0.87031400       0.80942100       0.98714500
    67  H          0.94365100       0.16930900       0.97630100
    68  H          0.05634900       0.83069100       0.02369900
    69  S          0.54338900       0.19510500       0.13356400
    70  S          0.45661100       0.80489500       0.86643600
    71  O          0.34713000       0.20668150       0.15108130
    72  O          0.65287000       0.79331850       0.84891870
    73  O          0.61663000       0.12795150       0.08318130
    74  O          0.38337000       0.87204850       0.91681870
    75  O          0.56063000       0.40315130       0.27874120
    76  O          0.43937000       0.59684870       0.72125880
    77  O          0.56483000       0.08798130       0.41246120
    78  O          0.43517000       0.91201870       0.58753880
    79  N          0.64373000       0.15774150       0.22941140
    80  N          0.35627000       0.84225850       0.77058860
    81  N          0.50603000       0.25245170       0.42046140
    82  N          0.49397000       0.74754830       0.57953860
    83  H          0.50240000       0.31420000       0.38921900
    84  H          0.49760000       0.68580000       0.61078100
    85  N          0.44223000       0.13250170       0.56026150
    86  N          0.55777000       0.86749830       0.43973850
    87  H          0.48640000       0.09120000       0.54120000
    88  H          0.51360000       0.90880000       0.45880000
    89  C          0.73404000       0.45032000       0.95586810
    90  C          0.26596000       0.54968000       0.04413190
    91  H          0.76384900       0.47612000       0.89351700
    92  H          0.23615100       0.52388000       0.10648300
    93  C          0.75524000       0.50942000       0.00955190
    94  C          0.24476000       0.49058000       0.99044810
    95  H          0.80053000       0.57563400       0.98401700
    96  H          0.19947000       0.42436600       0.01598300
    97  C          0.71084000       0.47312000       0.10095180
    98  C          0.28916000       0.52688000       0.89904820
    99  H          0.72484500       0.51474500       0.13732400
   100  H          0.27515500       0.48525500       0.86267600
   101  C          0.64553000       0.37551180       0.13932170
   102  C          0.35447000       0.62448820       0.86067830
   103  C          0.62623000       0.31732190       0.08334160
   104  C          0.37377000       0.68267810       0.91665840
   105  C          0.66914000       0.35292000      -0.00760180
   106  C          0.33086000       0.64708000       0.00760180
   107  H          0.65459100       0.31166000       0.95568200
   108  H          0.34540900       0.68834000       0.04431800
   109  C          0.59893000       0.33615180       0.23735160
   110  C          0.40107000       0.66384820       0.76264840
   111  C          0.84174000       0.11892000       0.22622000
   112  C          0.15826000       0.88108000       0.77378000
   113  H          0.85709900       0.06670200       0.19537000
   114  H          0.14290100       0.93329800       0.80463000
   115  H          0.88336300       0.08793200       0.28713300
   116  H          0.11663700       0.91206800       0.71286700
   117  H          0.91588900       0.17641000       0.19383600
   118  H          0.08411100       0.82359000       0.80616400
   119  C          0.59893000       0.22982180       0.27972160
   120  C          0.40107000       0.77017820       0.72027840
   121  C          0.55733000       0.18268190       0.37399170
   122  C          0.44267000       0.81731810       0.62600830
   123  C          0.43673000       0.23082180       0.50625160
   124  C          0.56327000       0.76917820       0.49374840
   125  C          0.35824000       0.30873190       0.54084170
   126  C          0.64176000       0.69126810       0.45915830
   127  H          0.35401400       0.37918600       0.50472000
   128  H          0.64598600       0.62081400       0.49528000
   129  C          0.28754000       0.28242000       0.62720180
   130  C          0.71246000       0.71758000       0.37279820
   131  H          0.23379300       0.33490900       0.65116600
   132  H          0.76620700       0.66509100       0.34883400
   133  C          0.29344000       0.17852000       0.68072180
   134  C          0.70656000       0.82148000       0.31927820
   135  H          0.24320900       0.16011100       0.74058400
   136  H          0.75679100       0.83988900       0.25941600
   137  C          0.37204000       0.10482000       0.64566170
   138  C          0.62796000       0.89518000       0.35433830
   139  H          0.37780300       0.03402700       0.68091700
   140  H          0.62219700       0.96597300       0.31908300
