data_TONMAL
_symmetry_space_group_name_H-M    'P1'
_symmetry_Int_Tables_number       1
loop_
_symmetry_equiv_pos_site_id
_symmetry_equiv_pos_as_xyz
1 x,y,z
_cell_length_a                   10.41051
_cell_length_b                   10.941711
_cell_length_c                   19.427419
_cell_angle_alpha                75.5312
_cell_angle_beta                 78.7682
_cell_angle_gamma                66.6262
loop_
_atom_site_label
_atom_site_type_symbol
_atom_site_fract_x
_atom_site_fract_y
_atom_site_fract_z
     1  C          0.14214000       0.65584000       0.13389170
     2  C          0.85786000       0.34416000       0.86610830
     3  C          0.23524000       0.68964000       0.07822000
     4  C          0.76476000       0.31036000       0.92178000
     5  C          0.19024000       0.77324000       0.01492000
     6  C          0.80976000       0.22676000       0.98508000
     7  C          0.04964000       0.82804000       0.00232000
     8  C          0.95036000       0.17196000      -0.00232000
     9  C          0.95626000       0.79414000       0.05902000
    10  C          0.04374000       0.20586000       0.94098000
    11  C          0.00264000       0.70914000       0.12252000
    12  C         -0.00264000       0.29086000       0.87748000
    13  F          0.37342000       0.64043000       0.08589130
    14  F          0.62658000       0.35957000       0.91410870
    15  F          0.28483000       0.80373000       0.96324860
    16  F          0.71517000       0.19627000       0.03675140
    17  F          0.81758000       0.84633000       0.05088130
    18  F          0.18242000       0.15367000       0.94911870
    19  F          0.90448000       0.68123000       0.17372120
    20  F          0.09552000       0.31877000       0.82627880
    21  I          0.21674300       0.52536300       0.22904413
    22  I          0.78325700       0.47463700       0.77095587
    23  O          0.01453000       0.90583000       0.93991850
    24  O          0.98547000       0.09417000       0.06008150
    25  H          0.92440000       0.94380000       0.92820000
    26  H          0.07560000       0.05620000       0.07180000
    27  C          0.49344000       0.36484000       0.33692000
    28  C          0.50656000       0.63516000       0.66308000
    29  H          0.51510000       0.41990000       0.29360000
    30  H          0.48490000       0.58010000       0.70640000
    31  C          0.59634000       0.29554000       0.38242000
    32  C          0.40366000       0.70446000       0.61758000
    33  H          0.68570000       0.30410000       0.37040000
    34  H          0.31430000       0.69590000       0.62960000
    35  C          0.56864000       0.21204000       0.44662000
    36  C          0.43136000       0.78796000       0.55338000
    37  C          0.43554000       0.20404000       0.45942000
    38  C          0.56446000       0.79596000       0.54058000
    39  H          0.41200000       0.14710000       0.50140000
    40  H          0.58800000       0.85290000       0.49860000
    41  C          0.33794000       0.27794000       0.41152000
    42  C          0.66206000       0.72206000       0.58848000
    43  H          0.24750000       0.27160000       0.42220000
    44  H          0.75250000       0.72840000       0.57780000
    45  C          0.67714000       0.14164000       0.49582000
    46  C          0.32286000       0.85836000       0.50418000
    47  H          0.76650000       0.14890000       0.48000000
    48  H          0.23350000       0.85110000       0.52000000
    49  C          0.66174000       0.06844000       0.56052000
    50  C          0.33826000       0.93156000       0.43948000
    51  H          0.57110000       0.06410000       0.57630000
    52  H          0.42890000       0.93590000       0.42370000
    53  C          0.76864000      -0.00604000       0.61012000
    54  C          0.23136000       0.00604000       0.38988000
    55  C          0.90594000      -0.00534000       0.59602000
    56  C          0.09406000       0.00534000       0.40398000
    57  H          0.93100000       0.04870000       0.55310000
    58  H          0.06900000       0.95130000       0.44690000
    59  C          0.00464000       0.91886000       0.64302000
    60  C         -0.00464000       0.08114000       0.35698000
    61  H          0.09670000       0.92100000       0.63230000
    62  H          0.90330000       0.07900000       0.36770000
    63  C          0.97054000       0.83846000       0.70642000
    64  C          0.02946000       0.16154000       0.29358000
    65  C          0.83444000       0.83716000       0.72222000
    66  C          0.16556000       0.16284000       0.27778000
    67  H          0.80930000       0.78410000       0.76540000
    68  H          0.19070000       0.21590000       0.23460000
    69  C          0.73684000       0.91386000       0.67442000
    70  C          0.26316000       0.08614000       0.32558000
    71  H          0.64440000       0.91230000       0.68550000
    72  H          0.35560000       0.08770000       0.31450000
    73  C          0.04614000       0.68526000       0.81542000
    74  C          0.95386000       0.31474000       0.18458000
    75  H          0.01110000       0.61890000       0.80700000
    76  H          0.98890000       0.38110000       0.19300000
    77  H          0.97260000       0.74390000       0.84630000
    78  H          0.02740000       0.25610000       0.15370000
    79  C          0.18014000       0.61196000       0.85142000
    80  C          0.81986000       0.38804000       0.14858000
    81  H          0.21610000       0.67900000       0.85810000
    82  H          0.78390000       0.32100000       0.14190000
    83  H          0.25250000       0.55260000       0.82050000
    84  H          0.74750000       0.44740000       0.17950000
    85  C          0.15314000       0.52656000       0.92382000
    86  C          0.84686000       0.47344000       0.07618000
    87  H          0.08280000       0.58740000       0.95470000
    88  H          0.91720000       0.41260000       0.04530000
    89  H          0.11220000       0.46360000       0.91680000
    90  H          0.88780000       0.53640000       0.08320000
    91  C          0.28374000       0.44496000       0.96212000
    92  C          0.71626000       0.55504000       0.03788000
    93  H          0.32790000       0.50720000       0.96700000
    94  H          0.67210000       0.49280000       0.03300000
    95  H          0.35210000       0.38010000       0.93280000
    96  H          0.64790000       0.61990000       0.06720000
    97  C          0.25234000       0.36696000       0.03612000
    98  C          0.74766000       0.63304000       0.96388000
    99  H          0.18240000       0.43190000       0.06500000
   100  H          0.81760000       0.56810000       0.93500000
   101  H          0.20980000       0.30370000       0.03100000
   102  H          0.79020000       0.69630000       0.96900000
   103  C          0.38204000       0.28695000       0.07552000
   104  C          0.61796000       0.71305000       0.92448000
   105  H          0.45230000       0.22330000       0.04700000
   106  H          0.54770000       0.77670000       0.95300000
   107  H          0.35580000       0.23660000       0.12170000
   108  H          0.64420000       0.76340000       0.87830000
   109  H          0.42150000       0.34960000       0.08340000
   110  H          0.57850000       0.65040000       0.91660000
   111  N          0.36414000       0.35913000       0.35011190
   112  N          0.63586000       0.64087000       0.64988810
   113  O          0.07703000       0.76637000       0.74856150
   114  O          0.92297000       0.23363000       0.25143850
   115  C          0.80404000       0.07524000       0.82212000
   116  C          0.19596000       0.92476000       0.17788000
   117  H          0.90010000       0.05920000       0.80510000
   118  H          0.09990000       0.94080000       0.19490000
   119  C          0.70504000       0.15444000       0.77622000
   120  C          0.29496000       0.84556000       0.22378000
   121  H          0.73310000       0.19180000       0.72880000
   122  H          0.26690000       0.80820000       0.27120000
   123  C          0.56164000       0.18064000       0.79912000
   124  C          0.43836000       0.81936000       0.20088000
   125  C          0.53014000       0.12054000       0.86962000
   126  C          0.46986000       0.87946000       0.13038000
   127  H          0.43510000       0.13370000       0.88800000
   128  H          0.56490000       0.86630000       0.11200000
   129  C          0.63654000       0.04224000       0.91252000
   130  C          0.36346000       0.95776000       0.08748000
   131  H          0.61200000       0.00310000       0.96020000
   132  H          0.38800000      -0.00310000       0.03980000
   133  C          0.44844000       0.26534000       0.75462000
   134  C          0.55156000       0.73466000       0.24538000
   135  H          0.35510000       0.28630000       0.77770000
   136  H          0.64490000       0.71370000       0.22230000
   137  C          0.46224000       0.31684000       0.68462000
   138  C          0.53776000       0.68316000       0.31538000
   139  H          0.55540000       0.29410000       0.66120000
   140  H          0.44460000       0.70590000       0.33880000
   141  C          0.34874000       0.40434000       0.64072000
   142  C          0.65126000       0.59566000       0.35928000
   143  C          0.37774000       0.43234000       0.56622000
   144  C          0.62226000       0.56766000       0.43378000
   145  H          0.47180000       0.39410000       0.54540000
   146  H          0.52820000       0.60590000       0.45460000
   147  C          0.27384000       0.51414000       0.52172000
   148  C          0.72616000       0.48586000       0.47828000
   149  H          0.29620000       0.53090000       0.47130000
   150  H          0.70380000       0.46910000       0.52870000
   151  C          0.13544000       0.57144000       0.55242000
   152  C          0.86456000       0.42856000       0.44758000
   153  C          0.10494000       0.54734000       0.62642000
   154  C          0.89506000       0.45266000       0.37358000
   155  H          0.01140000       0.58800000       0.64730000
   156  H          0.98860000       0.41200000       0.35270000
   157  C          0.20854000       0.46534000       0.66928190
   158  C          0.79146000       0.53466000       0.33071810
   159  H          0.18530000       0.44920000       0.71960000
   160  H          0.81470000       0.55080000       0.28040000
   161  C          0.04264000       0.67594000       0.43782190
   162  C          0.95736000       0.32406000       0.56217810
   163  H          0.07450000       0.58960000       0.42060000
   164  H          0.92550000       0.41040000       0.57940000
   165  H          0.11350000       0.71870000       0.41900000
   166  H          0.88650000       0.28130000       0.58100000
   167  C          0.90026000       0.76974000       0.41412000
   168  C          0.09974000       0.23026000       0.58588000
   169  H          0.86470000       0.84880000       0.43790000
   170  H          0.13530000       0.15120000       0.56210000
   171  H          0.83380000       0.72140000       0.42990000
   172  H          0.16620000       0.27860000       0.57010000
   173  C          0.90306000       0.81994000       0.33402000
   174  C          0.09694000       0.18006000       0.66598000
   175  H          0.93230000       0.74150000       0.31020000
   176  H          0.06770000       0.25850000       0.68980000
   177  H          0.97380000       0.86320000       0.31760000
   178  H          0.02620000       0.13680000       0.68240000
   179  C          0.75986000       0.92174000       0.31192000
   180  C          0.24014000       0.07826000       0.68808000
   181  H          0.69380000       0.87340000       0.32040000
   182  H          0.30620000       0.12660000       0.67960000
   183  H          0.72260000      -0.00960000       0.34290000
   184  H          0.27740000       0.00960000       0.65710000
   185  C          0.76356000      -0.00616000       0.23462000
   186  C          0.23644000       0.00616000       0.76538000
   187  H          0.80430000       0.92530000       0.20350000
   188  H          0.19570000       0.07470000       0.79650000
   189  H          0.82610000       0.04580000       0.22640000
   190  H          0.17390000       0.95420000       0.77360000
   191  C          0.61856000       0.09025000       0.21322000
   192  C          0.38144000       0.90975000       0.78678000
   193  H          0.55750000       0.03870000       0.21880000
   194  H          0.44250000       0.96130000       0.78120000
   195  H          0.62760000       0.13570000       0.16320000
   196  H          0.37240000       0.86430000       0.83680000
   197  H          0.57750000       0.15810000       0.24390000
   198  H          0.42250000       0.84190000       0.75610000
   199  N          0.77283000       0.01873000       0.88995180
   200  N          0.22717000       0.98127000       0.11004820
   201  O          0.02313000       0.65223000       0.51496140
   202  O          0.97687000       0.34777000       0.48503860
