data_TOPWUT
_symmetry_space_group_name_H-M    'P1'
_symmetry_Int_Tables_number       1
loop_
_symmetry_equiv_pos_site_id
_symmetry_equiv_pos_as_xyz
1 x,y,z
_cell_length_a                   7.86532
_cell_length_b                   10.18753
_cell_length_c                   15.23064
_cell_angle_alpha                77.8712
_cell_angle_beta                 89.8022
_cell_angle_gamma                87.6202
loop_
_atom_site_label
_atom_site_type_symbol
_atom_site_fract_x
_atom_site_fract_y
_atom_site_fract_z
     1  N          0.10842000       0.26599190       0.95849130
     2  N          0.89158000       0.73400810       0.04150870
     3  O          0.25449180       0.22134170       0.94414110
     4  O          0.74550820       0.77865830       0.05585890
     5  O          0.09359190       0.36765170      -0.00690880
     6  O          0.90640810       0.63234830       0.00690880
     7  O          0.76972000       0.36308180       0.98848140
     8  O          0.23028000       0.63691820       0.01151860
     9  H          0.86940000       0.39230000       0.00020000
    10  H          0.13060000       0.60770000      -0.00020000
    11  O          0.53334190       0.02082160       0.87728120
    12  O          0.46665810       0.97917840       0.12271880
    13  H          0.55240000       0.93930000       0.85320000
    14  H          0.44760000       0.06070000       0.14680000
    15  O          0.13239180       0.02979160       0.88216110
    16  O          0.86760820       0.97020840       0.11783890
    17  H          0.22040000       0.07730000       0.90320000
    18  H          0.77960000       0.92270000       0.09680000
    19  C          0.96433000       0.20292000       0.93690150
    20  C          0.03567000       0.79708000       0.06309850
    21  C          0.79733000       0.25412000       0.95292160
    22  C          0.20267000       0.74588000       0.04707840
    23  C          0.65793000       0.19092000       0.93116170
    24  C          0.34207000       0.80908000       0.06883830
    25  H          0.54710000       0.22570000       0.94090000
    26  H          0.45290000       0.77430000       0.05910000
    27  C          0.67593000       0.07702000       0.89515150
    28  C          0.32407000       0.92298000       0.10484850
    29  C          0.83763000       0.02512000       0.87849150
    30  C          0.16237000       0.97488000       0.12150850
    31  H          0.84860000       0.94760000       0.85310000
    32  H          0.15140000       0.05240000       0.14690000
    33  C          0.98113000       0.08632000       0.89897140
    34  C          0.01887000       0.91368000       0.10102860
    35  N          0.55642000       0.79442000       0.81554130
    36  N          0.44358000       0.20558000       0.18445870
    37  N          0.42462000       0.44034190       0.73695130
    38  N          0.57538000       0.55965810       0.26304870
    39  N          0.42532000       0.44186190       0.65385130
    40  N          0.57468000       0.55813810       0.34614870
    41  O          0.22552000       0.97123160       0.56218110
    42  O          0.77448000       0.02876840       0.43781890
    43  C          0.52073000       0.79672000       0.72919160
    44  C          0.47927000       0.20328000       0.27080840
    45  H          0.52490000       0.88010000       0.68740000
    46  H          0.47510000       0.11990000       0.31260000
    47  C          0.47823000       0.68512000       0.69746160
    48  C          0.52177000       0.31488000       0.30253840
    49  H          0.45430000       0.69140000       0.63560000
    50  H          0.54570000       0.30860000       0.36440000
    51  C          0.47153000       0.56332000       0.75858150
    52  C          0.52847000       0.43668000       0.24141850
    53  C          0.50653000       0.55983000       0.84781170
    54  C          0.49347000       0.44017000       0.15218830
    55  H          0.50110000       0.47810000       0.89120000
    56  H          0.49890000       0.52190000       0.10880000
    57  C          0.54933000       0.67663000       0.87315170
    58  C          0.45067000       0.32337000       0.12684830
    59  H          0.57500000       0.67280000       0.93460000
    60  H          0.42500000       0.32720000       0.06540000
    61  C          0.37493000       0.32022000       0.63279150
    62  C          0.62507000       0.67978000       0.36720850
    63  C          0.37093000       0.31472000       0.54250160
    64  C          0.62907000       0.68528000       0.45749840
    65  H          0.40230000       0.39050000       0.49850000
    66  H          0.59770000       0.60950000       0.50150000
    67  C          0.32123000       0.19952000       0.51567160
    68  C          0.67877000       0.80048000       0.48432840
    69  H          0.31880000       0.19640000       0.45380000
    70  H          0.68120000       0.80360000       0.54620000
    71  C          0.27533000       0.08922000       0.58024160
    72  C          0.72467000       0.91078000       0.41975840
    73  C          0.27813000       0.09412000       0.67161160
    74  C          0.72187000       0.90588000       0.32838840
    75  H          0.24580000       0.01860000       0.71550000
    76  H          0.75420000       0.98140000       0.28450000
    77  C          0.32743000       0.20792000       0.69765150
    78  C          0.67257000       0.79208000       0.30234850
    79  H          0.32950000       0.21090000       0.75960000
    80  H          0.67050000       0.78910000       0.24040000
    81  C          0.22553000       0.95602000       0.47021150
    82  C          0.77447000       0.04398000       0.52978850
    83  H          0.34020000       0.97070000       0.44390000
    84  H          0.65980000       0.02930000       0.55610000
    85  H          0.14360000       0.02180000       0.43400000
    86  H          0.85640000       0.97820000       0.56600000
    87  C          0.17443000       0.81432000       0.47148150
    88  C          0.82557000       0.18568000       0.52851850
    89  H          0.06210000       0.80050000       0.50080000
    90  H          0.93790000       0.19950000       0.49920000
    91  H          0.25800000       0.75040000       0.50800000
    92  H          0.74200000       0.24960000       0.49200000
    93  C          0.16403000       0.78302000       0.37815150
    94  C          0.83597000       0.21698000       0.62184850
    95  H          0.07870000       0.84500000       0.34150000
    96  H          0.92130000       0.15500000       0.65850000
    97  H          0.27570000       0.79690000       0.34820000
    98  H          0.72430000       0.20310000       0.65180000
    99  C          0.11453000       0.63852000       0.38416160
   100  C          0.88547000       0.36148000       0.61583840
   101  H          0.00850000       0.62370000       0.41950000
   102  H         -0.00850000       0.37630000       0.58050000
   103  H          0.20480000       0.57760000       0.41740000
   104  H          0.79520000       0.42240000       0.58260000
   105  C          0.08663000       0.60012000       0.29407160
   106  C          0.91337000       0.39988000       0.70592840
   107  H          0.19080000       0.61720000       0.25750000
   108  H          0.80920000       0.38280000       0.74250000
   109  H         -0.00740000       0.65770000       0.26160000
   110  H          0.00740000       0.34230000       0.73840000
   111  C          0.04373000       0.45252000       0.30451170
   112  C          0.95627000       0.54748000       0.69548830
   113  H          0.14190000       0.39550000       0.33300000
   114  H          0.85810000       0.60450000       0.66700000
   115  H          0.94570000       0.43420000       0.34560000
   116  H          0.05430000       0.56580000       0.65440000
   117  C          0.00103000       0.41173000       0.21684170
   118  C         -0.00103000       0.58827000       0.78315830
   119  H          0.09650000       0.43310000       0.17450000
   120  H          0.90350000       0.56690000       0.82550000
   121  H          0.89880000       0.46450000       0.18970000
   122  H          0.10120000       0.53550000       0.81030000
   123  C          0.96787000       0.26253000       0.23060190
   124  C          0.03213000       0.73747000       0.76939810
   125  H          0.07270000       0.20980000       0.25110000
   126  H          0.92730000       0.79020000       0.74890000
   127  H          0.93070000       0.24220000       0.17370000
   128  H          0.06930000       0.75780000       0.82630000
   129  H          0.87890000       0.23950000       0.27580000
   130  H          0.12110000       0.76050000       0.72420000
