data_TOPXED
_symmetry_space_group_name_H-M    'P1'
_symmetry_Int_Tables_number       1
loop_
_symmetry_equiv_pos_site_id
_symmetry_equiv_pos_as_xyz
1 x,y,z
_cell_length_a                   6.22803
_cell_length_b                   20.40501
_cell_length_c                   11.06006
_cell_angle_alpha                90.0
_cell_angle_beta                 101.98101
_cell_angle_gamma                90.0
loop_
_atom_site_label
_atom_site_type_symbol
_atom_site_fract_x
_atom_site_fract_y
_atom_site_fract_z
     1  C          0.57355000       0.70383120       0.56453000
     2  C          0.42645000       0.20383120       0.43547000
     3  H          0.70670000       0.72890000       0.58250000
     4  H          0.29330000       0.22890000       0.41750000
     5  H          0.46830000       0.72260000       0.60670000
     6  H          0.53170000       0.22260000       0.39330000
     7  H          0.51520000       0.70430000       0.47700000
     8  H          0.48480000       0.20430000       0.52300000
     9  C          0.77464000       0.60549100       0.56072000
    10  C          0.22536000       0.10549100       0.43928000
    11  C          0.88194000       0.62810100       0.47349190
    12  C          0.11806000       0.12810100       0.52650810
    13  H          0.84830000       0.66930000       0.43850000
    14  H          0.15170000       0.16930000       0.56150000
    15  C          0.04513000       0.58884900       0.43579190
    16  C          0.95487000       0.08884900       0.56420810
    17  C          0.16543000       0.60725900       0.34552000
    18  C          0.83457000       0.10725900       0.65448000
    19  C          0.32184000       0.56573100       0.31912000
    20  C          0.67816000       0.06573100       0.68088000
    21  H          0.40310000       0.57790000       0.26110000
    22  H          0.59690000       0.07790000       0.73890000
    23  C          0.36064000       0.50540110       0.37822000
    24  C          0.63936000       0.00540110       0.62178000
    25  H          0.46580000       0.47720000       0.35890000
    26  H          0.53420000       0.97720000       0.64110000
    27  C          0.09154000       0.52679900       0.49332000
    28  C          0.90846000       0.02679900       0.50668000
    29  C         -0.02216000       0.50476100       0.58252000
    30  C          0.02216000       0.00476100       0.41748000
    31  H          0.00960000       0.46390000       0.61890000
    32  H         -0.00960000       0.96390000       0.38110000
    33  C          0.82274000       0.54276110       0.61542000
    34  C          0.17726000       0.04276110       0.38458000
    35  H          0.74670000       0.52790000       0.67400000
    36  H          0.25330000       0.02790000       0.32600000
    37  C          0.12113000       0.67146900       0.27465190
    38  C          0.87887000       0.17146900       0.72534810
    39  H          0.08010000       0.70520000       0.32880000
    40  H          0.91990000       0.20520000       0.67120000
    41  C          0.92903000       0.66034800       0.16372190
    42  C          0.07097000       0.16034800       0.83627810
    43  H          0.81530000       0.63570000       0.19360000
    44  H          0.18470000       0.13570000       0.80640000
    45  C         -0.01206000       0.62170100       0.05652000
    46  C          0.01206000       0.12170100       0.94348000
    47  H          0.14580000       0.62190000       0.06370000
    48  H          0.85420000       0.12190000       0.93630000
    49  H          0.94060000       0.57660000       0.05980000
    50  H          0.05940000       0.07660000       0.94020000
    51  C          0.87704000       0.65213110       0.93398000
    52  C          0.12296000       0.15213110       0.06602000
    53  H          0.89860000       0.62410000       0.86560000
    54  H          0.10140000       0.12410000       0.13440000
    55  C         -0.02216000       0.71954130       0.92288000
    56  C          0.02216000       0.21954130       0.07712000
    57  H          0.13020000       0.71470000       0.91690000
    58  H          0.86980000       0.21470000       0.08310000
    59  H          0.90000000       0.74130000       0.84860000
    60  H          0.10000000       0.24130000       0.15140000
    61  C          0.96324000       0.76058110       0.03552000
    62  C          0.03676000       0.26058110       0.96448000
    63  H          0.10910000       0.76840000       0.08450000
    64  H          0.89090000       0.26840000       0.91550000
    65  H          0.89620000       0.80260000       0.00960000
    66  H          0.10380000       0.30260000      -0.00960000
    67  C          0.60734000       0.71036110       0.03172000
    68  C          0.39266000       0.21036110       0.96828000
    69  H          0.54130000       0.75070000      -0.00480000
    70  H          0.45870000       0.25070000       0.00480000
    71  H          0.51200000       0.69190000       0.08200000
    72  H          0.48800000       0.19190000       0.91800000
    73  C          0.63064000       0.66162110       0.92838000
    74  C          0.36936000       0.16162110       0.07162000
    75  H          0.56700000       0.68220000       0.84900000
    76  H          0.43300000       0.18220000       0.15100000
    77  C          0.51184000       0.59862130       0.93567000
    78  C          0.48816000       0.09862130       0.06433000
    79  H          0.54080000       0.57640000       0.01070000
    80  H          0.45920000       0.07640000      -0.01070000
    81  C          0.37285000       0.57269170       0.84627000
    82  C          0.62715000       0.07269170       0.15373000
    83  H          0.33940000       0.59340000       0.76980000
    84  H          0.66060000       0.09340000       0.23020000
    85  H          0.30550000       0.53320000       0.85820000
    86  H          0.69450000       0.03320000       0.14180000
    87  N          0.24783000       0.48836800       0.46151190
    88  N          0.75217000       0.98836800       0.53848810
    89  N          0.82793000       0.72463800       0.11089180
    90  N          0.17207000       0.22463800       0.88910820
    91  O          0.61813000       0.63825800       0.60468160
    92  O          0.38187000       0.13825800       0.39531840
    93  O          0.31333000       0.69100700       0.23610150
    94  O          0.68667000       0.19100700       0.76389850
    95  H          0.27440000       0.45199000       0.49720000
    96  H          0.72560000       0.95199000       0.50280000
    97  H          0.80140000       0.74671100       0.17061900
    98  H          0.19860000       0.24671100       0.82938100
    99  H          0.34150000       0.72991000       0.26830000
   100  H          0.65850000       0.22991000       0.73170000
   101  C          0.89164000       0.41850100       0.95178000
   102  C          0.10836000       0.91850100       0.04822000
   103  N          0.92234000       0.41272110       0.83708000
   104  N          0.07766000       0.91272110       0.16292000
   105  N          0.68934000       0.40934140       0.96778000
   106  N          0.31066000       0.90934140       0.03222000
   107  S          0.10455100       0.43519300       0.07029600
   108  S          0.89544900       0.93519300       0.92970400
   109  H          0.05230000       0.41241300       0.82880000
   110  H          0.94770000       0.91241300       0.17120000
   111  H          0.83630000       0.39171300       0.78180000
   112  H          0.16370000       0.89171300       0.21820000
   113  H          0.67140000       0.41231300       0.03761500
   114  H          0.32860000       0.91231300       0.96238500
   115  H          0.58440000       0.40001300       0.91068200
   116  H          0.41560000       0.90001300       0.08931800
   117  C          0.80703000       0.34210110       0.35272000
   118  C          0.19297000       0.84210110       0.64728000
   119  N          0.00033000       0.34332120       0.32012000
   120  N         -0.00033000       0.84332120       0.67988000
   121  N          0.80744000       0.33008120       0.47082000
   122  N          0.19256000       0.83008120       0.52918000
   123  S          0.56867100       0.35360300       0.24846600
   124  S          0.43132900       0.85360300       0.75153400
   125  H          0.11930000       0.34271400       0.37111800
   126  H          0.88070000       0.84271400       0.62888200
   127  H          0.01040000       0.35571200       0.24931600
   128  H         -0.01040000       0.85571200       0.75068400
   129  H          0.69530000       0.33131200       0.49720000
   130  H          0.30470000       0.83131200       0.50280000
   131  H          0.92830000       0.32601300       0.52320000
   132  H          0.07170000       0.82601300       0.47680000
   133  O          0.34343000       0.39537800       0.74961840
   134  O          0.65657000       0.89537800       0.25038160
   135  O          0.33893000       0.36424700       0.54071860
   136  O          0.66107000       0.86424700       0.45928140
   137  O          0.21503000       0.28840800       0.67476850
   138  O          0.78497000       0.78840800       0.32523150
   139  O          0.59792000       0.31554700       0.70478840
   140  O          0.40208000       0.81554700       0.29521160
   141  S          0.37337800       0.34093200       0.66919500
   142  S          0.62662200       0.84093200       0.33080500
   143  O          0.75604000       0.50506110       0.22222000
   144  O          0.24396000       0.00506110       0.77778000
   145  H          0.67150000       0.47141200       0.22840000
   146  H          0.32850000       0.97141200       0.77160000
   147  H          0.87730000       0.48711600       0.21130000
   148  H          0.12270000       0.98711600       0.78870000
