data_TOQNUL
_symmetry_space_group_name_H-M    'P1'
_symmetry_Int_Tables_number       1
loop_
_symmetry_equiv_pos_site_id
_symmetry_equiv_pos_as_xyz
1 x,y,z
_cell_length_a                   5.884815
_cell_length_b                   8.65681
_cell_length_c                   21.7975
_cell_angle_alpha                88.66217
_cell_angle_beta                 85.16718
_cell_angle_gamma                71.23715
loop_
_atom_site_label
_atom_site_type_symbol
_atom_site_fract_x
_atom_site_fract_y
_atom_site_fract_z
     1  S          0.52857100       0.25701600       0.36804200
     2  S          0.47142900       0.74298400       0.63195800
     3  N          0.52823000       0.50812000       0.29561800
     4  N          0.47177000       0.49188000       0.70438200
     5  H          0.48430000       0.57220000       0.26361000
     6  H          0.51570000       0.42780000       0.73639000
     7  H          0.61640000       0.52930000       0.32341000
     8  H          0.38360000       0.47070000       0.67659000
     9  N          0.30333000       0.35233190       0.26684700
    10  N          0.69667000       0.64766810       0.73315300
    11  H          0.25340000       0.26930000       0.27229000
    12  H          0.74660000       0.73070000       0.72771000
    13  N          0.24133000       0.45243170       0.21695600
    14  N          0.75867000       0.54756830       0.78304400
    15  N          0.85607000       0.72380180       0.02796700
    16  N          0.14393000       0.27619820       0.97203300
    17  C          0.45173000       0.38122000       0.30653800
    18  C          0.54827000       0.61878000       0.69346200
    19  C          0.09143000       0.42322000       0.18308800
    20  C          0.90857000       0.57678000       0.81691200
    21  H          0.02975600       0.33607000       0.19308600
    22  H          0.97024400       0.66393000       0.80691400
    23  C          0.01553000       0.52472000       0.12881800
    24  C          0.98447000       0.47528000       0.87118200
    25  C          0.82997000       0.50852000       0.09638800
    26  C          0.17003000       0.49148000       0.90361200
    27  H          0.75513500       0.42891600       0.10815500
    28  H          0.24486500       0.57108400       0.89184500
    29  C          0.75627000       0.61012000       0.04668800
    30  C          0.24373000       0.38988000       0.95331200
    31  H          0.62940100       0.59841700       0.02495200
    32  H          0.37059900       0.40158300       0.97504800
    33  C          0.03743000       0.73822000       0.05849800
    34  C          0.96257000       0.26178000       0.94150200
    35  H          0.11069000       0.81756000       0.04520400
    36  H          0.88931000       0.18244000       0.95479600
    37  C          0.12173000       0.64162000       0.10861800
    38  C          0.87827000       0.35838000       0.89138200
    39  H          0.25069700       0.65478300       0.12903600
    40  H          0.74930300       0.34521700       0.87096400
    41  N          0.55323000       0.80003180       0.21103700
    42  N          0.44677000       0.19996820       0.78896300
    43  C          0.71733000       0.83282000       0.24322800
    44  C          0.28267000       0.16718000       0.75677200
    45  H          0.77371600       0.76515100       0.27733900
    46  H          0.22628400       0.23484900       0.72266100
    47  C          0.80963000       0.96022000       0.22955700
    48  C          0.19037000       0.03978000       0.77044300
    49  C          0.73263000       0.05692000       0.17848800
    50  C          0.26737000       0.94308000       0.82151200
    51  H          0.79539000       0.14278200       0.16714200
    52  H          0.20461000       0.85721800       0.83285800
    53  C          0.56283000       0.02602000       0.14444800
    54  C          0.43717000       0.97398000       0.85555200
    55  C          0.47813000       0.89832000       0.16306800
    56  C          0.52187000       0.10168000       0.83693200
    57  H          0.35885600       0.87926600       0.14030000
    58  H          0.64114400       0.12073400       0.85970000
    59  C          0.47463000       0.12812000       0.08911800
    60  C          0.52537000       0.87188000       0.91088200
    61  C         -0.01347000      -0.00668000       0.26841800
    62  C          0.01347000       0.00668000       0.73158200
    63  O          0.04653000       0.88855170       0.31374600
    64  O          0.95347000       0.11144830       0.68625400
    65  H          0.14750000       0.91030000       0.33441200
    66  H          0.85250000       0.08970000       0.66558800
    67  O          0.06592000       0.10636150       0.25790600
    68  O          0.93408000       0.89363850       0.74209400
    69  O          0.56573000       0.22851180       0.06873600
    70  O          0.43427000       0.77148820       0.93126400
    71  O          0.29403000       0.09765180       0.06662600
    72  O          0.70597000       0.90234820       0.93337400
    73  H          0.23650000       0.16630000       0.02791400
    74  H          0.76350000       0.83370000       0.97208600
    75  N         -0.01047000       0.69878190       0.45373700
    76  N          0.01047000       0.30121810       0.54626300
    77  O          0.74092000       0.65844150       0.38550600
    78  O          0.25908000       0.34155850       0.61449400
    79  C          0.93443000       0.61692000       0.41009800
    80  C          0.06557000       0.38308000       0.58990200
    81  H          0.05268100       0.51784100       0.39634600
    82  H          0.94731900       0.48215900       0.60365400
    83  C          0.82024000       0.85323000       0.47659110
    84  C          0.17976000       0.14677000       0.52340890
    85  H          0.65594400       0.84785100       0.47820100
    86  H          0.34405600       0.15214900       0.52179900
    87  H          0.83353400       0.94135800       0.44898100
    88  H          0.16646600       0.05864200       0.55101900
    89  H          0.85710200       0.87422200       0.51797500
    90  H          0.14289800       0.12577800       0.48202500
    91  C          0.22754000       0.64303000       0.47806100
    92  C          0.77246000       0.35697000       0.52193900
    93  H          0.32051000       0.53602400       0.46043400
    94  H          0.67949000       0.46397600       0.53956600
    95  H          0.20830500       0.63441500       0.52298500
    96  H          0.79169500       0.36558500       0.47701500
    97  H          0.31262500       0.72144800       0.46701900
    98  H          0.68737500       0.27855200       0.53298100
    99  O          0.35293000       0.93952000       0.38076700
   100  O          0.64707000       0.06048000       0.61923300
   101  H          0.48250000       0.85840000       0.38241300
   102  H          0.51750000       0.14160000       0.61758700
   103  H          0.39450000       0.02330000       0.37361200
   104  H          0.60550000       0.97670000       0.62638800
