data_TORXOQ
_symmetry_space_group_name_H-M    'P1'
_symmetry_Int_Tables_number       1
loop_
_symmetry_equiv_pos_site_id
_symmetry_equiv_pos_as_xyz
1 x,y,z
_cell_length_a                   8.97325
_cell_length_b                   9.54015
_cell_length_c                   10.99026
_cell_angle_alpha                82.259219
_cell_angle_beta                 72.134417
_cell_angle_gamma                65.707016
loop_
_atom_site_label
_atom_site_type_symbol
_atom_site_fract_x
_atom_site_fract_y
_atom_site_fract_z
     1  O          0.66901100       0.85892100       0.88603200
     2  O          0.33098900       0.14107900       0.11396800
     3  H          0.72220000       0.91551800       0.81988500
     4  H          0.27780000       0.08448200       0.18011500
     5  O          0.45871100       0.96430900       0.79152200
     6  O          0.54128900       0.03569100       0.20847800
     7  O          0.77813890       0.42463100       0.30657800
     8  O          0.22186110       0.57536900       0.69342200
     9  O          0.54598900       0.55617100       0.24033900
    10  O          0.45401100       0.44382900       0.75966100
    11  H          0.50480000       0.48431900       0.29421600
    12  H          0.49520000       0.51568100       0.70578400
    13  C          0.51999130       0.87947120       0.87173900
    14  C          0.48000870       0.12052880       0.12826100
    15  C          0.43983140       0.78266130       0.96622900
    16  C          0.56016860       0.21733870       0.03377100
    17  H          0.42755700       0.80969900       0.05364800
    18  H          0.57244300       0.19030100       0.94635200
    19  H          0.51835600       0.67327600       0.95273400
    20  H          0.48164400       0.32672400       0.04726600
    21  C          0.26752130       0.79975120       0.95851900
    22  C          0.73247870       0.20024880       0.04148100
    23  H          0.27789900       0.77357100       0.87132100
    24  H          0.72210100       0.22642900       0.12867900
    25  H          0.18669900       0.90814700       0.97459900
    26  H          0.81330100       0.09185300       0.02540100
    27  C          0.19762130       0.69579120       0.05558100
    28  C          0.80237870       0.30420880       0.94441900
    29  H          0.27692700       0.58741800       0.03675400
    30  H          0.72307300       0.41258200       0.96324600
    31  H          0.19370200       0.71870600       0.14199600
    32  H          0.80629800       0.28129400       0.85800400
    33  C          0.02078130       0.71357120       0.05632100
    34  C          0.97921870       0.28642880       0.94367900
    35  H          0.02441100       0.69071900       0.96997300
    36  H          0.97558900       0.30928100       0.03002700
    37  H          0.94115200       0.82179200       0.07550100
    38  H          0.05884800       0.17820800       0.92449900
    39  C          0.95266870       0.60878120       0.15354100
    40  C          0.04733130       0.39121880       0.84645900
    41  H          0.02967200       0.50018500       0.13298500
    42  H          0.97032800       0.49981500       0.86701500
    43  H          0.95132200       0.62940800       0.23986000
    44  H          0.04867800       0.37059200       0.76014000
    45  C          0.77416870       0.63324120       0.15406100
    46  C          0.22583130       0.36675880       0.84593900
    47  H          0.69703100       0.74058300       0.17926100
    48  H          0.30296900       0.25941700       0.82073900
    49  H          0.77516400       0.61998900       0.06596600
    50  H          0.22483600       0.38001100       0.93403400
    51  C          0.70312870       0.52651120       0.24211100
    52  C          0.29687130       0.47348880       0.75788900
    53  N          0.39295120       0.37713110       0.37387900
    54  N          0.60704880       0.62286890       0.62612100
    55  N          0.84909880       0.00410110       0.72538800
    56  N          0.15090120      -0.00410110       0.27461200
    57  C          0.25158140       0.39800130       0.34503100
    58  C          0.74841860       0.60199870       0.65496900
    59  H          0.22342900       0.46669000       0.27684100
    60  H          0.77657100       0.53331000       0.72315900
    61  C          0.43230140       0.27827130       0.46879110
    62  C          0.56769860       0.72172870       0.53120890
    63  H          0.53370500       0.26078500       0.48976700
    64  H          0.46629500       0.73921500       0.51023300
    65  C          0.14294140       0.32559120       0.40846100
    66  C          0.85705860       0.67440880       0.59153900
    67  H          0.04354300       0.34459100       0.38393000
    68  H          0.95645700       0.65540900       0.61607000
    69  C          0.33181140       0.19987130       0.53820100
    70  C          0.66818860       0.80012870       0.46179900
    71  H          0.36468600       0.13043900       0.60479000
    72  H          0.63531400       0.86956100       0.39521000
    73  C          0.18196130       0.22430110       0.50898900
    74  C          0.81803870       0.77569890       0.49101100
    75  C          0.06679130       0.14739110       0.58333900
    76  C          0.93320870       0.85260890       0.41666100
    77  C          0.90055860       0.19737120       0.57508100
    78  C          0.09944140       0.80262880       0.42491900
    79  H          0.85864700       0.28099200       0.52034000
    80  H          0.14135300       0.71900800       0.47966000
    81  C          0.12006140       0.02355130       0.66548100
    82  C          0.87993860       0.97644870       0.33451900
    83  H          0.23158700      -0.01366500       0.67525800
    84  H          0.76841300       0.01366500       0.32474200
    85  C          0.79696860       0.12349130       0.64784100
    86  C          0.20303140       0.87650870       0.35215900
    87  H          0.68356800       0.15959900       0.64219400
    88  H          0.31643200       0.84040100       0.35780600
    89  C          0.00833140       0.95562870       0.73253100
    90  C          0.99166860       0.04437130       0.26746900
    91  H          0.04728000       0.86998800       0.78644600
    92  H          0.95272000       0.13001200       0.21355400
