data_TORYOR
_symmetry_space_group_name_H-M    'P1'
_symmetry_Int_Tables_number       1
loop_
_symmetry_equiv_pos_site_id
_symmetry_equiv_pos_as_xyz
1 x,y,z
_cell_length_a                   9.57735
_cell_length_b                   10.75056
_cell_length_c                   10.95646
_cell_angle_alpha                96.1992
_cell_angle_beta                 97.730819
_cell_angle_gamma                113.726618
loop_
_atom_site_label
_atom_site_type_symbol
_atom_site_fract_x
_atom_site_fract_y
_atom_site_fract_z
     1  O          0.43550800       0.45735700       0.70709700
     2  O          0.56449200       0.54264300       0.29290300
     3  O          0.07175800       0.53810300       0.25214800
     4  O          0.92824200       0.46189700       0.74785200
     5  H          0.97188100       0.50558500       0.20851400
     6  H          0.02811900       0.49441500       0.79148600
     7  O          0.48148800       0.63473700       0.60425700
     8  O          0.51851200       0.36526300       0.39574300
     9  H          0.57551800       0.67441500       0.65661400
    10  H          0.42448200       0.32558500       0.34338600
    11  O          0.11426900       0.73146200       0.17523800
    12  O          0.88573100       0.26853800       0.82476200
    13  C          0.97186900       0.25284900       0.46623800
    14  C          0.02813100       0.74715100       0.53376200
    15  H          0.92370800       0.31651500       0.48664700
    16  H          0.07629200       0.68348500       0.51335300
    17  H         -0.01117100       0.25596700       0.37924100
    18  H          0.01117100       0.74403300       0.62075900
    19  C          0.32222900       0.71698200       0.31536800
    20  C          0.67777100       0.28301800       0.68463200
    21  H          0.36786800       0.65330500       0.28824400
    22  H          0.63213200       0.34669500       0.71175600
    23  H          0.31500200       0.71345700       0.40431700
    24  H          0.68499800       0.28654300       0.59568300
    25  C          0.43169100       0.86259100       0.30579800
    26  C          0.56830900       0.13740900       0.69420200
    27  H          0.38605600       0.92700800       0.33076100
    28  H          0.61394400       0.07299200       0.66923900
    29  H          0.44384200       0.86634200       0.21776700
    30  H          0.55615800       0.13365800       0.78223300
    31  C          0.85958100       0.10680900       0.47343900
    32  C          0.14041900       0.89319100       0.52656100
    33  H          0.84163500       0.10393200       0.56018700
    34  H          0.15836500       0.89606800       0.43981300
    35  H          0.90824200       0.04328500       0.45399700
    36  H          0.09175800       0.95671500       0.54600300
    37  C          0.23497100       0.44956900       0.54296900
    38  C          0.76502900       0.55043100       0.45703100
    39  H          0.24921300       0.44998200       0.45514300
    40  H          0.75078700       0.55001800       0.54485700
    41  H          0.18209000       0.50989000       0.56110200
    42  H          0.81791000       0.49011000       0.43889800
    43  C          0.59115100       0.90850100       0.38916900
    44  C          0.40884900       0.09149900       0.61083100
    45  H          0.57801300       0.90200800       0.47668000
    46  H          0.42198700       0.09799200       0.52332000
    47  H          0.63703300       0.84474700       0.36282300
    48  H          0.36296700       0.15525300       0.63717700
    49  C          0.12915100       0.30363900       0.55436900
    50  C          0.87084900       0.69636100       0.44563100
    51  H          0.11344200       0.30140500       0.64172200
    52  H          0.88655800       0.69859500       0.35827800
    53  H          0.17892900       0.24129200       0.53388800
    54  H          0.82107100       0.75870800       0.46611200
    55  C          0.39312100       0.51114900       0.62729800
    56  C          0.60687900       0.48885100       0.37270200
    57  C          0.70298100       0.05538900       0.38423800
    58  C          0.29701900       0.94461100       0.61576200
    59  H          0.65359600       0.11803900       0.40471600
    60  H          0.34640400       0.88196100       0.59528400
    61  H          0.72122000       0.06005500       0.29767300
    62  H          0.27878000       0.93994500       0.70232700
    63  C          0.16031100       0.66568100       0.23914800
    64  C          0.83968900       0.33431900       0.76085200
    65  N          0.22118900       0.58820800       0.86963200
    66  N          0.77881100       0.41179200       0.13036800
    67  N          0.23818900       0.22781800       0.24953700
    68  N          0.76181100       0.77218200       0.75046300
    69  C          0.30115110       0.70929100       0.83728100
    70  C          0.69884890       0.29070900       0.16271900
    71  H          0.25150400       0.73633700       0.77097800
    72  H          0.74849600       0.26366300       0.22902200
    73  C          0.16804100       0.09410100       0.25686900
    74  C          0.83195900       0.90589900       0.74313100
    75  H          0.22362000       0.05697800       0.30859900
    76  H          0.77638000       0.94302200       0.69140100
    77  C          0.00996100       0.19787900       0.10627800
    78  C         -0.00996100       0.80212100       0.89372200
    79  H          0.95894800       0.23736900       0.05307800
    80  H          0.04105200       0.76263100       0.94692200
    81  C          0.93545100       0.05919900       0.11628800
    82  C          0.06454900       0.94080100       0.88371200
    83  C          0.29267110       0.55139100       0.96273100
    84  C          0.70732890       0.44860900       0.03726900
    85  H          0.23769200       0.46493900       0.98632300
    86  H          0.76230800       0.53506100       0.01367700
    87  C          0.77632100       0.97480900       0.04644800
    88  C          0.22367900       0.02519100       0.95355200
    89  H          0.73374400       0.01398100       0.98638800
    90  H          0.26625600      -0.01398100       0.01361200
    91  C          0.15956100       0.27798900       0.17475800
    92  C          0.84043900       0.72201100       0.82524200
    93  H          0.20802600       0.37268900       0.16804500
    94  H          0.79197400       0.62731100       0.83195500
    95  C          0.52730100       0.76042900      -0.00685800
    96  C          0.47269900       0.23957100       0.00685800
    97  C          0.44392110       0.63377100       0.02679900
    98  C          0.55607890       0.36622900       0.97320100
    99  H          0.48999900       0.60387000       0.09298500
   100  H          0.51000100       0.39613000       0.90701500
   101  C          0.45234100       0.79787100       0.89474100
   102  C          0.54765900       0.20212900       0.10525900
   103  H          0.50447300       0.88287400       0.86777900
   104  H          0.49552700       0.11712600       0.13222100
   105  C          0.01910100       0.00664900       0.19341900
   106  C         -0.01910100      -0.00664900       0.80658100
   107  H          0.97427400       0.91233500       0.20204500
   108  H          0.02572600       0.08766500       0.79795500
   109  C          0.68684100       0.84684100       0.06109800
   110  C          0.31315900       0.15315900       0.93890200
   111  H          0.73058200       0.80832700       0.12102900
   112  H          0.26941800       0.19167300       0.87897100
