data_TOSLUK
_symmetry_space_group_name_H-M    'P1'
_symmetry_Int_Tables_number       1
loop_
_symmetry_equiv_pos_site_id
_symmetry_equiv_pos_as_xyz
1 x,y,z
_cell_length_a                   7.32252
_cell_length_b                   15.32725
_cell_length_c                   21.45866
_cell_angle_alpha                90.0
_cell_angle_beta                 94.0563
_cell_angle_gamma                90.0
loop_
_atom_site_label
_atom_site_type_symbol
_atom_site_fract_x
_atom_site_fract_y
_atom_site_fract_z
     1  S          0.33886800       0.06930400       0.71382300
     2  S          0.66113200       0.56930400       0.78617700
     3  S          0.66113200       0.93069600       0.28617700
     4  S          0.33886800       0.43069600       0.21382300
     5  S          0.46391800       0.25712400       0.33213300
     6  S          0.53608200       0.75712400       0.16786700
     7  S          0.53608200       0.74287600       0.66786700
     8  S          0.46391800       0.24287600       0.83213300
     9  C          0.30943000       0.11087150       0.29683100
    10  C          0.69057000       0.61087150       0.20316900
    11  C          0.69057000       0.88912850       0.70316900
    12  C          0.30943000       0.38912850       0.79683100
    13  H          0.25910000       0.06580000       0.27220000
    14  H          0.74090000       0.56580000       0.22780000
    15  H          0.74090000       0.93420000       0.72780000
    16  H          0.25910000       0.43420000       0.77220000
    17  N          0.54612000       0.30914120       0.51165800
    18  N          0.45388000       0.80914120       0.98834200
    19  N          0.45388000       0.69085880       0.48834200
    20  N          0.54612000       0.19085880       0.01165800
    21  C          0.50743000       0.45891150       0.63069100
    22  C          0.49257000       0.95891150       0.86930900
    23  C          0.49257000       0.54108850       0.36930900
    24  C          0.50743000       0.04108850       0.13069100
    25  H          0.46580000       0.42610000       0.66560000
    26  H          0.53420000       0.92610000       0.83440000
    27  H          0.53420000       0.57390000       0.33440000
    28  H          0.46580000       0.07390000       0.16560000
    29  H          0.56600000       0.51160000       0.64710000
    30  H          0.43400000       0.01160000       0.85290000
    31  H          0.43400000       0.48840000       0.35290000
    32  H          0.56600000       0.98840000       0.14710000
    33  N          0.27933000       0.05614130       0.41046900
    34  N          0.72067000       0.55614130       0.08953100
    35  N          0.72067000       0.94385870       0.58953100
    36  N          0.27933000       0.44385870       0.91046900
    37  N          0.23442000       0.98874880       0.54732900
    38  N          0.76558000       0.48874880       0.95267100
    39  N          0.76558000       0.01125120       0.45267100
    40  N          0.23442000       0.51125120       0.04732900
    41  C          0.32503000       0.11098150       0.36289100
    42  C          0.67497000       0.61098150       0.13710900
    43  C          0.67497000       0.88901850       0.63710900
    44  C          0.32503000       0.38901850       0.86289100
    45  C          0.40533000       0.18584140       0.38926100
    46  C          0.59467000       0.68584140       0.11073900
    47  C          0.59467000       0.81415860       0.61073900
    48  C          0.40533000       0.31415860       0.88926100
    49  C          0.41053000       0.17747140       0.45526900
    50  C          0.58947000       0.67747140       0.04473100
    51  C          0.58947000       0.82252860       0.54473100
    52  C          0.41053000       0.32252860       0.95526900
    53  C          0.46883000       0.22909140       0.50847100
    54  C          0.53117000       0.72909140       0.99152900
    55  C          0.53117000       0.77090860       0.49152900
    56  C          0.46883000       0.27090860       0.00847100
    57  N          0.56722000       0.32352120       0.57334800
    58  N          0.43278000       0.82352120       0.92665200
    59  N          0.43278000       0.67647880       0.42665200
    60  N          0.56722000       0.17647880       0.07334800
    61  C          0.64663000       0.40485140       0.59848100
    62  C          0.35337000       0.90485140       0.90151900
    63  C          0.35337000       0.59514860       0.40151900
    64  C          0.64663000       0.09514860       0.09848100
    65  H          0.69290000       0.43860000       0.56470000
    66  H          0.30710000       0.93860000       0.93530000
    67  H          0.30710000       0.56140000       0.43530000
    68  H          0.69290000       0.06140000       0.06470000
    69  H          0.74900000       0.39140000       0.62810000
    70  H          0.25100000       0.89140000       0.87190000
    71  H          0.25100000       0.60860000       0.37190000
    72  H          0.74900000       0.10860000       0.12810000
    73  C          0.34373000       0.48357150       0.58731110
    74  C          0.65627000       0.98357150       0.91268890
    75  C          0.65627000       0.51642850       0.41268890
    76  C          0.34373000       0.01642850       0.08731110
    77  H          0.28340000       0.43080000       0.57170000
    78  H          0.71660000       0.93080000       0.92830000
    79  H          0.71660000       0.56920000       0.42830000
    80  H          0.28340000       0.06920000       0.07170000
    81  H          0.38590000       0.51490000       0.55180000
    82  H          0.61410000       0.01490000       0.94820000
    83  H          0.61410000       0.48510000       0.44820000
    84  H          0.38590000       0.98510000       0.05180000
    85  C          0.20533000       0.54003160       0.61882110
    86  C          0.79467000       0.04003160       0.88117890
    87  C          0.79467000       0.45996840       0.38117890
    88  C          0.20533000       0.95996840       0.11882110
    89  H          0.16710000       0.50990000       0.65550000
    90  H          0.83290000       0.00990000       0.84450000
    91  H          0.83290000       0.49010000       0.34450000
    92  H          0.16710000       0.99010000       0.15550000
    93  H          0.26360000       0.59420000       0.63250000
    94  H          0.73640000       0.09420000       0.86750000
    95  H          0.73640000       0.40580000       0.36750000
    96  H          0.26360000       0.90580000       0.13250000
    97  C          0.03883000       0.56035170       0.57578110
    98  C          0.96117000       0.06035170       0.92421890
    99  C          0.96117000       0.43964830       0.42421890
   100  C          0.03883000       0.93964830       0.07578110
   101  H          0.97740000       0.50610000       0.56400000
   102  H          0.02260000       0.00610000       0.93600000
   103  H          0.02260000       0.49390000       0.43600000
   104  H          0.97740000      -0.00610000       0.06400000
   105  H          0.07830000       0.58710000       0.53800000
   106  H          0.92170000       0.08710000       0.96200000
   107  H          0.92170000       0.41290000       0.46200000
   108  H          0.07830000       0.91290000       0.03800000
   109  C          0.90277000       0.62084180       0.60447120
   110  C          0.09723000       0.12084180       0.89552880
   111  C          0.09723000       0.37915820       0.39552880
   112  C          0.90277000       0.87915820       0.10447120
   113  H          0.86690000       0.59610000       0.64280000
   114  H          0.13310000       0.09610000       0.85720000
   115  H          0.13310000       0.40390000       0.35720000
   116  H          0.86690000       0.90390000       0.14280000
   117  H          0.79680000       0.62790000       0.57590000
   118  H          0.20320000       0.12790000       0.92410000
   119  H          0.20320000       0.37210000       0.42410000
   120  H          0.79680000       0.87210000       0.07590000
   121  H          0.95890000       0.67660000       0.61270000
   122  H          0.04110000       0.17660000       0.88730000
   123  H          0.04110000       0.32340000       0.38730000
   124  H          0.95890000       0.82340000       0.11270000
   125  C          0.37853000       0.18628160       0.27433100
   126  C          0.62147000       0.68628160       0.22566900
   127  C          0.62147000       0.81371840       0.72566900
   128  C          0.37853000       0.31371840       0.77433100
   129  H          0.37960000       0.19850000       0.23190000
   130  H          0.62040000       0.69850000       0.26810000
   131  H          0.62040000       0.80150000       0.76810000
   132  H          0.37960000       0.30150000       0.73190000
   133  C          0.33183000       0.09553140       0.46649100
   134  C          0.66817000       0.59553140       0.03350900
   135  C          0.66817000       0.90446860       0.53350900
   136  C          0.33183000       0.40446860       0.96649100
   137  N          0.51012000       0.26110110       0.61073800
   138  N          0.48988000       0.76110110       0.88926200
   139  N          0.48988000       0.73889890       0.38926200
   140  N          0.51012000       0.23889890       0.11073800
   141  C          0.44663000       0.19931140       0.56971900
   142  C          0.55337000       0.69931140       0.93028100
   143  C          0.55337000       0.80068860       0.43028100
   144  C          0.44663000       0.30068860       0.06971900
   145  C          0.36803000       0.11590140       0.58065100
   146  C          0.63197000       0.61590140       0.91934900
   147  C          0.63197000       0.88409860       0.41934900
   148  C          0.36803000       0.38409860       0.08065100
   149  C          0.31083000       0.06555140       0.52828100
   150  C          0.68917000       0.56555140       0.97171900
   151  C          0.68917000       0.93444860       0.47171900
   152  C          0.31083000       0.43444860       0.02828100
   153  C          0.24133000       0.98928860       0.61167100
   154  C          0.75867000       0.48928860       0.88832900
   155  C          0.75867000       0.01071140       0.38832900
   156  C          0.24133000       0.51071140       0.11167100
   157  C          0.32353000       0.06634140       0.63307100
   158  C          0.67647000       0.56634140       0.86692900
   159  C          0.67647000       0.93365860       0.36692900
   160  C          0.32353000       0.43365860       0.13307100
   161  C          0.23213000       0.96824840       0.71648110
   162  C          0.76787000       0.46824840       0.78351890
   163  C          0.76787000       0.03175160       0.28351890
   164  C          0.23213000       0.53175160       0.21648110
   165  H          0.20810000       0.94080000       0.75370000
   166  H          0.79190000       0.44080000       0.74630000
   167  H          0.79190000       0.05920000       0.24630000
   168  H          0.20810000       0.55920000       0.25370000
   169  C          0.18683000       0.93292850       0.65943100
   170  C          0.81317000       0.43292850       0.84056900
   171  C          0.81317000       0.06707150       0.34056900
   172  C          0.18683000       0.56707150       0.15943100
   173  H          0.12850000       0.87950000       0.65260000
   174  H          0.87150000       0.37950000       0.84740000
   175  H          0.87150000       0.12050000       0.34740000
   176  H          0.12850000       0.62050000       0.15260000
   177  H          0.23830000       0.00581500       0.40741000
   178  H          0.76170000       0.50581500       0.09259000
   179  H          0.76170000      -0.00581500       0.59259000
   180  H          0.23830000       0.49418500       0.90741000
   181  H          0.19030000       0.94738400       0.52211100
   182  H          0.80970000       0.44738400       0.97788900
   183  H          0.80970000       0.05261600       0.47788900
   184  H          0.19030000       0.55261600       0.02211100
   185  O          0.05817190       0.78410900       0.36824700
   186  O          0.94182810       0.28410900       0.13175300
   187  O          0.94182810       0.21589100       0.63175300
   188  O          0.05817190       0.71589100       0.86824700
   189  O          0.12792000       0.88825900       0.43914700
   190  O          0.87208000       0.38825900       0.06085300
   191  O          0.87208000       0.11174100       0.56085300
   192  O          0.12792000       0.61174100       0.93914700
   193  C          0.11833000       0.78778000       0.26120120
   194  C          0.88167000       0.28778000       0.23879880
   195  C          0.88167000       0.21222000       0.73879880
   196  C          0.11833000       0.71222000       0.76120120
   197  H          0.19460000       0.73710000       0.26710000
   198  H          0.80540000       0.23710000       0.23290000
   199  H          0.80540000       0.26290000       0.73290000
   200  H          0.19460000       0.76290000       0.76710000
   201  H          0.16100000       0.82280000       0.22810000
   202  H          0.83900000       0.32280000       0.27190000
   203  H          0.83900000       0.17720000       0.77190000
   204  H          0.16100000       0.67720000       0.72810000
   205  H         -0.00570000       0.77010000       0.25050000
   206  H          0.00570000       0.27010000       0.24950000
   207  H          0.00570000       0.22990000       0.74950000
   208  H         -0.00570000       0.72990000       0.75050000
   209  C          0.12623000       0.84006840       0.32026100
   210  C          0.87377000       0.34006840       0.17973900
   211  C          0.87377000       0.15993160       0.67973900
   212  C          0.12623000       0.65993160       0.82026100
   213  H          0.25110000       0.85790000       0.33190000
   214  H          0.74890000       0.35790000       0.16810000
   215  H          0.74890000       0.14210000       0.66810000
   216  H          0.25110000       0.64210000       0.83190000
   217  H          0.05080000       0.89190000       0.31480000
   218  H          0.94920000       0.39190000       0.18520000
   219  H          0.94920000       0.10810000       0.68520000
   220  H          0.05080000       0.60810000       0.81480000
   221  C          0.06893000       0.81588850       0.42608100
   222  C          0.93107000       0.31588850       0.07391900
   223  C          0.93107000       0.18411150       0.57391900
   224  C          0.06893000       0.68411150       0.92608100
   225  C          0.00713000       0.75238850       0.47269110
   226  C         -0.00713000       0.25238850       0.02730890
   227  C         -0.00713000       0.24761150       0.52730890
   228  C          0.00713000       0.74761150       0.97269110
   229  H          0.11190000       0.72770000       0.49570000
   230  H          0.88810000       0.22770000       0.00430000
   231  H          0.88810000       0.27230000       0.50430000
   232  H          0.11190000       0.77230000      -0.00430000
   233  H          0.93780000       0.70680000       0.45150000
   234  H          0.06220000       0.20680000       0.04850000
   235  H          0.06220000       0.29320000       0.54850000
   236  H          0.93780000       0.79320000       0.95150000
   237  H          0.93190000       0.78180000       0.50100000
   238  H          0.06810000       0.28180000      -0.00100000
   239  H          0.06810000       0.21820000       0.49900000
   240  H          0.93190000       0.71820000       0.00100000
