data_TOSTIG
_symmetry_space_group_name_H-M    'P1'
_symmetry_Int_Tables_number       1
loop_
_symmetry_equiv_pos_site_id
_symmetry_equiv_pos_as_xyz
1 x,y,z
_cell_length_a                   9.111018
_cell_length_b                   15.3383
_cell_length_c                   13.3243
_cell_angle_alpha                90.0
_cell_angle_beta                 96.733
_cell_angle_gamma                90.0
loop_
_atom_site_label
_atom_site_type_symbol
_atom_site_fract_x
_atom_site_fract_y
_atom_site_fract_z
     1  Cl         0.03212000       0.56602120       0.36953150
     2  Cl         0.46788000       0.56602120       0.13046850
     3  Cl         0.96788000       0.43397880       0.63046850
     4  Cl         0.53212000       0.43397880       0.86953150
     5  N          0.25000000       0.65074000       0.25000000
     6  N          0.75000000       0.34926000       0.75000000
     7  C          0.25000000       0.55355000       0.25000000
     8  C          0.75000000       0.44645000       0.75000000
     9  O          0.15757000       0.68663000       0.20144000
    10  O          0.34243000       0.68663000       0.29856000
    11  O          0.84243000       0.31337000       0.79856000
    12  O          0.65757000       0.31337000       0.70144000
    13  Cl         0.25000000       0.26423140       0.25000000
    14  Cl         0.75000000       0.73576860       0.75000000
    15  C          0.15056000       0.51044000       0.30274000
    16  C          0.34944000       0.51044000       0.19726000
    17  C          0.84944000       0.48956000       0.69726000
    18  C          0.65056000       0.48956000       0.80274000
    19  O          0.92784000       0.36304000       0.31645000
    20  O          0.57216000       0.36304000       0.18355000
    21  O          0.07216000       0.63696000       0.68355000
    22  O          0.42784000       0.63696000       0.81645000
    23  N          0.05058000       0.37344000       0.35995000
    24  N          0.44942000       0.37344000       0.14005000
    25  N          0.94942000       0.62656000       0.64005000
    26  N          0.55058000       0.62656000       0.85995000
    27  C          0.15456000       0.42273000       0.30114000
    28  C          0.34544000       0.42273000       0.19886000
    29  C          0.84544000       0.57727000       0.69886000
    30  C          0.65456000       0.57727000       0.80114000
    31  O          0.09667000       0.34594000       0.44184000
    32  O          0.40333000       0.34594000       0.05816000
    33  O          0.90333000       0.65406000       0.55816000
    34  O          0.59667000       0.65406000       0.94184000
    35  C          0.25000000       0.37385000       0.25000000
    36  C          0.75000000       0.62615000       0.75000000
    37  Cl        -0.00012190       0.87251120       0.16278150
    38  Cl         0.50012190       0.87251120       0.33721850
    39  Cl         0.00012190       0.12748880       0.83721850
    40  Cl         0.49987810       0.12748880       0.66278150
    41  Cl         0.75000000       0.17493140       0.25000000
    42  Cl         0.25000000       0.82506860       0.75000000
    43  N          0.97873000       0.06634000       0.16795000
    44  N          0.52127000       0.06634000       0.33205000
    45  N          0.02127000       0.93366000       0.83205000
    46  N          0.47873000       0.93366000       0.66795000
    47  O          0.79074000       0.75173000       0.32844000
    48  O          0.70926000       0.75173000       0.17156000
    49  O          0.20926000       0.24827000       0.67156000
    50  O          0.29074000       0.24827000       0.82844000
    51  N          0.75000000       0.78774000       0.25000000
    52  N          0.25000000       0.21226000       0.75000000
    53  C          0.75000000       0.88414000       0.25000000
    54  C          0.25000000       0.11586000       0.75000000
    55  O          0.96074000       0.08394000       0.08375000
    56  O          0.53926000       0.08394000       0.41625000
    57  O          0.03926000       0.91606000       0.91625000
    58  O          0.46074000       0.91606000       0.58375000
    59  C          0.86205000       0.92653000       0.20904000
    60  C          0.63795000       0.92653000       0.29096000
    61  C          0.13795000       0.07347000       0.79096000
    62  C          0.36205000       0.07347000       0.70904000
    63  O          0.08446000       0.08145000       0.22135000
    64  O          0.41554000       0.08145000       0.27865000
    65  O          0.91554000       0.91855000       0.77865000
    66  O          0.58446000       0.91855000       0.72135000
    67  C          0.86025000       0.01773000       0.21184000
    68  C          0.63975000       0.01773000       0.28816000
    69  C          0.13975000       0.98227000       0.78816000
    70  C          0.36025000       0.98227000       0.71184000
    71  C          0.75000000       0.06225000       0.25000000
    72  C          0.25000000       0.93775000       0.75000000
    73  C          0.05501200       0.68155000       0.95524000
    74  C          0.44498800       0.68155000       0.54476000
    75  C          0.94498800       0.31845000       0.04476000
    76  C          0.55501200       0.31845000       0.45524000
    77  H          0.12940000       0.68730000       0.91030000
    78  H          0.37060000       0.68730000       0.58970000
    79  H          0.87060000       0.31270000       0.08970000
    80  H          0.62940000       0.31270000       0.41030000
    81  H          0.08690000       0.71100000       0.01760000
    82  H          0.41310000       0.71100000       0.48240000
    83  H          0.91310000       0.28900000       0.98240000
    84  H          0.58690000       0.28900000       0.51760000
    85  H          0.96440000       0.70700000       0.92480000
    86  H          0.53560000       0.70700000       0.57520000
    87  H          0.03560000       0.29300000       0.07520000
    88  H          0.46440000       0.29300000       0.42480000
    89  C          0.03041100       0.58575000       0.97603000
    90  C          0.46958900       0.58575000       0.52397000
    91  C          0.96958900       0.41425000       0.02397000
    92  C          0.53041100       0.41425000       0.47603000
    93  C          0.92779000       0.56316000       0.03947000
    94  C          0.57221000       0.56316000       0.46053000
    95  C          0.07221000       0.43684000       0.96053000
    96  C          0.42779000       0.43684000       0.53947000
    97  H          0.87520000       0.60720000       0.06710000
    98  H          0.62480000       0.60720000       0.43290000
    99  H          0.12480000       0.39280000       0.93290000
   100  H          0.37520000       0.39280000       0.56710000
   101  C          0.90091000       0.48138000       0.06246000
   102  C          0.59909000       0.48138000       0.43754000
   103  C          0.09909000       0.51862000       0.93754000
   104  C          0.40091000       0.51862000       0.56246000
   105  H          0.83210000       0.47000000       0.10700000
   106  H          0.66790000       0.47000000       0.39300000
   107  H          0.16790000       0.53000000       0.89300000
   108  H          0.33210000       0.53000000       0.60700000
   109  C          0.12608000       0.83445000       0.45086000
   110  C          0.37392000       0.83445000       0.04914000
   111  C          0.87392000       0.16555000       0.54914000
   112  C          0.62608000       0.16555000       0.95086000
   113  H          0.21710000       0.84550000       0.42340000
   114  H          0.28290000       0.84550000       0.07660000
   115  H          0.78290000       0.15450000       0.57660000
   116  H          0.71710000       0.15450000       0.92340000
   117  H          0.05900000       0.80460000       0.40130000
   118  H          0.44100000       0.80460000       0.09870000
   119  H          0.94100000       0.19540000       0.59870000
   120  H          0.55900000       0.19540000       0.90130000
   121  H          0.14500000       0.79880000       0.51010000
   122  H          0.35500000       0.79880000      -0.01010000
   123  H          0.85500000       0.20120000       0.48990000
   124  H          0.64500000       0.20120000       0.01010000
   125  C          0.05957000       0.91844000       0.47775000
   126  C          0.44043000       0.91844000       0.02225000
   127  C          0.94043000       0.08156000       0.52225000
   128  C          0.55957000       0.08156000       0.97775000
   129  C          0.12737000      -0.00374000       0.45945000
   130  C          0.37263000      -0.00374000       0.04055000
   131  C          0.87263000       0.00374000       0.54055000
   132  C          0.62737000       0.00374000       0.95945000
   133  H          0.21510000      -0.00510000       0.43010000
   134  H          0.28490000      -0.00510000       0.06990000
   135  H          0.78490000       0.00510000       0.56990000
   136  H          0.71510000       0.00510000       0.93010000
   137  C          0.07147000       0.07375000       0.48245000
   138  C          0.42853000       0.07375000       0.01755000
   139  C          0.92853000       0.92625000       0.51755000
   140  C          0.57147000       0.92625000       0.98245000
   141  H          0.12380000       0.12400000       0.47080000
   142  H          0.37620000       0.12400000       0.02920000
   143  H          0.87620000       0.87600000       0.52920000
   144  H          0.62380000       0.87600000       0.97080000
