data_TOWCOB
_symmetry_space_group_name_H-M    'P1'
_symmetry_Int_Tables_number       1
loop_
_symmetry_equiv_pos_site_id
_symmetry_equiv_pos_as_xyz
1 x,y,z
_cell_length_a                   6.941514
_cell_length_b                   14.2303
_cell_length_c                   12.5073
_cell_angle_alpha                90.0
_cell_angle_beta                 98.463
_cell_angle_gamma                90.0
loop_
_atom_site_label
_atom_site_type_symbol
_atom_site_fract_x
_atom_site_fract_y
_atom_site_fract_z
     1  Br         0.42083600       0.70300300       0.51648300
     2  Br         0.07916400       0.20300300       0.98351700
     3  Br         0.57916400       0.29699700       0.48351700
     4  Br         0.92083600       0.79699700       0.01648300
     5  O          0.29604000       0.61032000       0.28592000
     6  O          0.20396000       0.11032000       0.21408000
     7  O          0.70396000       0.38968000       0.71408000
     8  O          0.79604000       0.88968000       0.78592000
     9  O          0.82374000       0.60152000       0.54853000
    10  O          0.67626000       0.10152000       0.95147000
    11  O          0.17626000       0.39848000       0.45147000
    12  O          0.32374000       0.89848000       0.04853000
    13  N          0.53964000       0.61772000       0.43153000
    14  N          0.96036000       0.11772000       0.06847000
    15  N          0.46036000       0.38228000       0.56847000
    16  N          0.03964000       0.88228000       0.93153000
    17  C          0.45606000       0.58763000       0.33033000
    18  C          0.04394000       0.08763000       0.16967000
    19  C          0.54394000       0.41237000       0.66967000
    20  C          0.95606000       0.91237000       0.83033000
    21  C          0.59846000       0.52283000       0.28733000
    22  C          0.90154000       0.02283000       0.21267000
    23  C          0.40154000       0.47717000       0.71267000
    24  C          0.09846000       0.97717000       0.78733000
    25  H          0.63280000       0.54670000       0.21830000
    26  H          0.86720000       0.04670000       0.28170000
    27  H          0.36720000       0.45330000       0.78170000
    28  H          0.13280000       0.95330000       0.71830000
    29  H          0.54290000       0.45890000       0.27540000
    30  H          0.95710000       0.95890000       0.22460000
    31  H          0.45710000       0.54110000       0.72460000
    32  H          0.04290000       0.04110000       0.77540000
    33  C          0.77715000       0.52163000       0.37493000
    34  C          0.72285000       0.02163000       0.12507000
    35  C          0.22285000       0.47837000       0.62507000
    36  C          0.27715000       0.97837000       0.87493000
    37  H          0.80550000       0.45690000       0.40170000
    38  H          0.69450000       0.95690000       0.09830000
    39  H          0.19450000       0.54310000       0.59830000
    40  H          0.30550000       0.04310000       0.90170000
    41  H          0.89270000       0.54640000       0.34640000
    42  H          0.60730000       0.04640000       0.15360000
    43  H          0.10730000       0.45360000       0.65360000
    44  H          0.39270000       0.95360000       0.84640000
    45  C          0.72566000       0.58333000       0.46344000
    46  C          0.77434000       0.08333000       0.03656000
    47  C          0.27434000       0.41667000       0.53656000
    48  C          0.22566000       0.91667000       0.96344000
    49  O          0.27434000       0.80952000       0.63072000
    50  O          0.22566000       0.30952000       0.86928000
    51  O          0.72566000       0.19048000       0.36928000
    52  O          0.77434000       0.69048000       0.13072000
    53  N          0.26815000       0.75823000       0.71923000
    54  N          0.23185000       0.25823000       0.78077000
    55  N          0.73185000       0.24177000       0.28077000
    56  N          0.76815000       0.74177000       0.21923000
    57  C          0.10925000       0.70643000       0.72963000
    58  C          0.39075000       0.20643000       0.77037000
    59  C          0.89075000       0.29357000       0.27037000
    60  C          0.60925000       0.79357000       0.22963000
    61  H          0.00030000       0.70920000       0.67390000
    62  H          0.49970000       0.20920000       0.82610000
    63  H         -0.00030000       0.29080000       0.32610000
    64  H          0.50030000       0.79080000       0.17390000
    65  C          0.09876000       0.65013000       0.81713000
    66  C          0.40124000       0.15013000       0.68287000
    67  C          0.90124000       0.34987000       0.18287000
    68  C          0.59876000       0.84987000       0.31713000
    69  C          0.25756000       0.64673000       0.90083000
    70  C          0.24244000       0.14673000       0.59917000
    71  C          0.74244000       0.35327000       0.09917000
    72  C          0.75756000       0.85327000       0.40083000
    73  C          0.41805000       0.70133000       0.88733000
    74  C          0.08195000       0.20133000       0.61267000
    75  C          0.58195000       0.29867000       0.11267000
    76  C          0.91805000       0.79867000       0.38733000
    77  H          0.52800000       0.70100000       0.94230000
    78  H          0.97200000       0.20100000       0.55770000
    79  H          0.47200000       0.29900000       0.05770000
    80  H          0.02800000       0.79900000       0.44230000
    81  C          0.42326000       0.75523000       0.79794000
    82  C          0.07674000       0.25523000       0.70206000
    83  C          0.57674000       0.24477000       0.20206000
    84  C          0.92326000       0.74477000       0.29794000
    85  H          0.53640000       0.79090000       0.79100000
    86  H          0.96360000       0.29090000       0.70900000
    87  H          0.46360000       0.20910000       0.20900000
    88  H          0.03640000       0.70910000       0.29100000
    89  C          0.25647000       0.58564000      -0.00286000
    90  C          0.24353000       0.08564000       0.50286000
    91  C          0.74353000       0.41436000       0.00286000
    92  C          0.75647000       0.91436000       0.49714000
    93  H          0.14920000       0.60430000       0.03550000
    94  H          0.35080000       0.10430000       0.46450000
    95  H          0.85080000       0.39570000       0.96450000
    96  H          0.64920000       0.89570000       0.53550000
    97  H          0.38030000       0.59230000       0.04540000
    98  H          0.11970000       0.09230000       0.45460000
    99  H          0.61970000       0.40770000       0.95460000
   100  H          0.88030000       0.90770000       0.54540000
   101  H          0.23890000       0.52000000       0.97400000
   102  H          0.26110000       0.02000000       0.52600000
   103  H          0.76110000       0.48000000       0.02600000
   104  H          0.73890000       0.98000000       0.47400000
   105  C          0.91824000       0.59304000       0.82264000
   106  C          0.58176000       0.09304000       0.67736000
   107  C          0.08176000       0.40696000       0.17736000
   108  C          0.41824000       0.90696000       0.32264000
   109  H          0.82020000       0.60770000       0.76020000
   110  H          0.67980000       0.10770000       0.73980000
   111  H          0.17980000       0.39230000       0.23980000
   112  H          0.32020000       0.89230000       0.26020000
   113  H          0.86650000       0.60800000       0.88940000
   114  H          0.63350000       0.10800000       0.61060000
   115  H          0.13350000       0.39200000       0.11060000
   116  H          0.36650000       0.89200000       0.38940000
   117  H          0.95050000       0.52590000       0.82190000
   118  H          0.54950000       0.02590000       0.67810000
   119  H          0.04950000       0.47410000       0.17810000
   120  H          0.45050000       0.97410000       0.32190000
