data_TOWDOC
_symmetry_space_group_name_H-M    'P1'
_symmetry_Int_Tables_number       1
loop_
_symmetry_equiv_pos_site_id
_symmetry_equiv_pos_as_xyz
1 x,y,z
_cell_length_a                   7.572915
_cell_length_b                   23.7535
_cell_length_c                   7.592615
_cell_angle_alpha                90.0
_cell_angle_beta                 96.243
_cell_angle_gamma                90.0
loop_
_atom_site_label
_atom_site_type_symbol
_atom_site_fract_x
_atom_site_fract_y
_atom_site_fract_z
     1  Br         0.75290700       0.86295200       0.48950300
     2  Br         0.24709300       0.36295200       0.01049700
     3  Br         0.24709300       0.13704800       0.51049700
     4  Br         0.75290700       0.63704800      -0.01049700
     5  O          0.11483000       0.88411900       0.32943000
     6  O          0.88517000       0.38411900       0.17057000
     7  O          0.88517000       0.11588100       0.67057000
     8  O          0.11483000       0.61588100       0.82943000
     9  O          0.79717000       0.72894900       0.46083000
    10  O          0.20283000       0.22894900       0.03917000
    11  O          0.20283000       0.27105100       0.53917000
    12  O          0.79717000       0.77105100       0.96083000
    13  N          0.91887000       0.81514100       0.39993000
    14  N          0.08113000       0.31514100       0.10007000
    15  N          0.08113000       0.18485900       0.60007000
    16  N          0.91887000       0.68485900       0.89993000
    17  C          0.91276000       0.75640120       0.40643000
    18  C          0.08724000       0.25640120       0.09357000
    19  C          0.08724000       0.24359880       0.59357000
    20  C          0.91276000       0.74359880       0.90643000
    21  C          0.07964000       0.73752130       0.33623000
    22  C          0.92036000       0.23752130       0.16377000
    23  C          0.92036000       0.26247870       0.66377000
    24  C          0.07964000       0.76247870       0.83623000
    25  C          0.17714000       0.78420130       0.30023000
    26  C          0.82286000       0.28420130       0.19977000
    27  C          0.82286000       0.21579870       0.69977000
    28  C          0.17714000       0.71579870       0.80023000
    29  C          0.07654000       0.83530130       0.34143000
    30  C          0.92346000       0.33530130       0.15857000
    31  C          0.92346000       0.16469870       0.65857000
    32  C          0.07654000       0.66469870       0.84143000
    33  C          0.13945000       0.68373140       0.30924000
    34  C          0.86055000       0.18373140       0.19076000
    35  C          0.86055000       0.31626860       0.69076000
    36  C          0.13945000       0.81626860       0.80924000
    37  H          0.07190000       0.65160000       0.33430000
    38  H          0.92810000       0.15160000       0.16570000
    39  H          0.92810000       0.34840000       0.66570000
    40  H          0.07190000       0.84840000       0.83430000
    41  C          0.30295000       0.67869180       0.24355000
    42  C          0.69705000       0.17869180       0.25645000
    43  C          0.69705000       0.32130820       0.75645000
    44  C          0.30295000       0.82130820       0.74355000
    45  H          0.34710000       0.64230000       0.22080000
    46  H          0.65290000       0.14230000       0.27920000
    47  H          0.65290000       0.35770000       0.77920000
    48  H          0.34710000       0.85770000       0.72080000
    49  C          0.40235000       0.72531190       0.21074000
    50  C          0.59765000       0.22531190       0.28926000
    51  C          0.59765000       0.27468810       0.78926000
    52  C          0.40235000       0.77468810       0.71074000
    53  H          0.51510000       0.72040000       0.16880000
    54  H          0.48490000       0.22040000       0.33120000
    55  H          0.48490000       0.27960000       0.83120000
    56  H          0.51510000       0.77960000       0.66880000
    57  C          0.34074000       0.77943160       0.23784000
    58  C          0.65926000       0.27943160       0.26216000
    59  C          0.65926000       0.22056840       0.76216000
    60  C          0.34074000       0.72056840       0.73784000
    61  H          0.40850000       0.81170000       0.21440000
    62  H          0.59150000       0.31170000       0.28560000
    63  H          0.59150000       0.18830000       0.78560000
    64  H          0.40850000       0.68830000       0.71440000
    65  O          0.55087000       0.92747800       0.60702000
    66  O          0.44913000       0.42747800       0.89298000
    67  O          0.44913000       0.07252200       0.39298000
    68  O          0.55087000       0.57252200       0.10702000
    69  N          0.62817000       0.94909900       0.75813000
    70  N          0.37183000       0.44909900       0.74187000
    71  N          0.37183000       0.05090100       0.24187000
    72  N          0.62817000       0.55090100       0.25813000
    73  C          0.68726000       0.91470120       0.89234000
    74  C          0.31274000       0.41470120       0.60766000
    75  C          0.31274000       0.08529880       0.10766000
    76  C          0.68726000       0.58529880       0.39234000
    77  H          0.67670000       0.87510000       0.87770000
    78  H          0.32330000       0.37510000       0.62230000
    79  H          0.32330000       0.12490000       0.12230000
    80  H          0.67670000       0.62490000       0.37770000
    81  C          0.76276000       0.93638130       0.04974000
    82  C          0.23724000       0.43638130       0.45026000
    83  C          0.23724000       0.06361870       0.95026000
    84  C          0.76276000       0.56361870       0.54974000
    85  H          0.80460000       0.91140000       0.14270000
    86  H          0.19540000       0.41140000       0.35730000
    87  H          0.19540000       0.08860000       0.85730000
    88  H          0.80460000       0.58860000       0.64270000
    89  C          0.77956000       0.99378130       0.07654000
    90  C          0.22044000       0.49378130       0.42346000
    91  C          0.22044000       0.00621870       0.92346000
    92  C          0.77956000       0.50621870       0.57654000
    93  C          0.71906000       0.02780130       0.93354000
    94  C          0.28094000       0.52780130       0.56646000
    95  C          0.28094000       0.97219870       0.06646000
    96  C          0.71906000       0.47219870       0.43354000
    97  H          0.72890000       0.06750000       0.94510000
    98  H          0.27110000       0.56750000       0.55490000
    99  H          0.27110000       0.93250000       0.05490000
   100  H          0.72890000       0.43250000       0.44510000
   101  C          0.64546000       0.00518120       0.77604000
   102  C          0.35454000       0.50518120       0.72396000
   103  C          0.35454000      -0.00518120       0.22396000
   104  C          0.64546000       0.49481880       0.27604000
   105  H          0.60680000       0.02920000       0.67940000
   106  H          0.39320000       0.52920000       0.82060000
   107  H          0.39320000       0.97080000       0.32060000
   108  H          0.60680000       0.47080000       0.17940000
   109  C          0.85725000       0.01757150       0.25184000
   110  C          0.14275000       0.51757150       0.24816000
   111  C          0.14275000       0.98242850       0.74816000
   112  C          0.85725000       0.48242850       0.75184000
   113  H          0.93660000       0.04900000       0.23150000
   114  H          0.06340000       0.54900000       0.26850000
   115  H          0.06340000       0.95100000       0.76850000
   116  H          0.93660000       0.45100000       0.73150000
   117  H          0.92460000       0.98820000       0.32040000
   118  H          0.07540000       0.48820000       0.17960000
   119  H          0.07540000       0.01180000       0.67960000
   120  H          0.92460000       0.51180000       0.82040000
   121  H          0.76130000       0.03100000       0.31770000
   122  H          0.23870000       0.53100000       0.18230000
   123  H          0.23870000       0.96900000       0.68230000
   124  H          0.76130000       0.46900000       0.81770000
