data_TOWDES
_symmetry_space_group_name_H-M    'P1'
_symmetry_Int_Tables_number       1
loop_
_symmetry_equiv_pos_site_id
_symmetry_equiv_pos_as_xyz
1 x,y,z
_cell_length_a                   8.50873
_cell_length_b                   12.25726
_cell_length_c                   13.74678
_cell_angle_alpha                101.2545
_cell_angle_beta                 98.3744
_cell_angle_gamma                105.5204
loop_
_atom_site_label
_atom_site_type_symbol
_atom_site_fract_x
_atom_site_fract_y
_atom_site_fract_z
     1  Br         0.24191300       0.77831200       0.86642200
     2  Br         0.75808700       0.22168800       0.13357800
     3  O          0.85428000       0.72421140       0.84531130
     4  O          0.14572000       0.27578860       0.15468870
     5  O          0.29138180       0.05333140       0.88265120
     6  O          0.70861820       0.94666860       0.11734880
     7  N          0.10062000       0.87242160       0.86637140
     8  N          0.89938000       0.12757840       0.13362860
     9  C          0.92857000       0.82642000       0.85788160
    10  C          0.07143000       0.17358000       0.14211840
    11  C          0.86377000       0.92742000       0.86516160
    12  C          0.13623000       0.07258000       0.13483840
    13  C         -0.00433000       0.02692000       0.87422160
    14  C          0.00433000       0.97308000       0.12577840
    15  C          0.15113000      -0.00746810       0.87580160
    16  C          0.84887000       0.00746810       0.12419840
    17  C          0.97257000       0.13472000       0.88065160
    18  C          0.02743000       0.86528000       0.11934840
    19  H          0.06310000       0.20240000       0.88640000
    20  H          0.93690000       0.79760000       0.11360000
    21  C          0.81107000       0.14052000       0.87832170
    22  C          0.18893000       0.85948000       0.12167830
    23  H          0.79070000       0.21350000       0.88220000
    24  H          0.20930000       0.78650000       0.11780000
    25  C          0.67877000       0.04132000       0.87045170
    26  C          0.32123000       0.95868000       0.12954830
    27  H          0.57000000       0.04800000       0.86960000
    28  H          0.43000000       0.95200000       0.13040000
    29  C          0.70307000       0.93292000       0.86387170
    30  C          0.29693000       0.06708000       0.13612830
    31  H          0.61300000       0.86510000       0.85870000
    32  H          0.38700000       0.13490000       0.14130000
    33  Br         0.18357300       0.76238200       0.36130200
    34  Br         0.81642700       0.23761800       0.63869800
    35  O          0.79558000       0.71807140       0.35521130
    36  O          0.20442000       0.28192860       0.64478870
    37  O          0.24282190       0.03669140       0.37967120
    38  O          0.75717810       0.96330860       0.62032880
    39  N          0.04512000       0.85910160       0.36472130
    40  N          0.95488000       0.14089840       0.63527870
    41  C          0.87407000       0.81802000       0.36075160
    42  C          0.12593000       0.18198000       0.63924840
    43  C          0.81317000       0.92115190       0.36402160
    44  C          0.18683000       0.07884810       0.63597840
    45  C          0.94887000       0.01795190       0.37216160
    46  C          0.05113000       0.98204810       0.62783840
    47  C          0.10073000       0.97941190       0.37299160
    48  C          0.89927000       0.02058810       0.62700840
    49  C          0.93127000       0.12692000       0.37670160
    50  C          0.06873000       0.87308000       0.62329840
    51  H          0.02430000       0.19290000       0.38230000
    52  H         -0.02430000       0.80710000       0.61770000
    53  C          0.77087000       0.13642000       0.37269170
    54  C          0.22913000       0.86358000       0.62730830
    55  H          0.75420000       0.21060000       0.37600000
    56  H          0.24580000       0.78940000       0.62400000
    57  C          0.63517000       0.03972000       0.36388170
    58  C          0.36483000       0.96028000       0.63611830
    59  H          0.52730000       0.04880000       0.36090000
    60  H          0.47270000       0.95120000       0.63910000
    61  C          0.65377000       0.93002000       0.35935170
    62  C          0.34623000       0.06998000       0.64064830
    63  H          0.56100000       0.86370000       0.35330000
    64  H          0.43900000       0.13630000       0.64670000
    65  O          0.40942000       0.65144150       0.87859120
    66  O          0.59058000       0.34855850       0.12140880
    67  N          0.38262000       0.61424160       0.96066140
    68  N          0.61738000       0.38575840       0.03933860
    69  C          0.48633000       0.67162000       0.05145190
    70  C          0.51367000       0.32838000       0.94854810
    71  H          0.57760000       0.73820000       0.05570000
    72  H          0.42240000       0.26180000       0.94430000
    73  C          0.46033000       0.63412000       0.13763180
    74  C          0.53967000       0.36588000       0.86236820
    75  H          0.53290000       0.67500000       0.20120000
    76  H          0.46710000       0.32500000       0.79880000
    77  C          0.32903000       0.53722000       0.13121190
    78  C          0.67097000       0.46278000       0.86878810
    79  H          0.31090000       0.50920000       0.18970000
    80  H          0.68910000       0.49080000       0.81030000
    81  C          0.22483000       0.48182000       0.03895180
    82  C          0.77517000       0.51818000       0.96104820
    83  H          0.13280000       0.41540000       0.03420000
    84  H          0.86720000       0.58460000       0.96580000
    85  C          0.24963000       0.51982000       0.95235170
    86  C          0.75037000       0.48018000       0.04764830
    87  C          0.14133000       0.46372000       0.85013190
    88  C          0.85867000       0.53628000       0.14986810
    89  H          0.09660000       0.52090000       0.82460000
    90  H          0.90340000       0.47910000       0.17540000
    91  H          0.04900000       0.39820000       0.85450000
    92  H          0.95100000       0.60180000       0.14550000
    93  H          0.20680000       0.43500000       0.80390000
    94  H          0.79320000       0.56500000       0.19610000
    95  O          0.35661190       0.63967140       0.36239110
    96  O          0.64338810       0.36032860       0.63760890
    97  N          0.38742000       0.62786150       0.45654130
    98  N          0.61258000       0.37213850       0.54345870
    99  C          0.52163000       0.70582000       0.52378170
   100  C          0.47837000       0.29418000       0.47621830
   101  H          0.59150000       0.76730000       0.50260000
   102  H          0.40850000       0.23270000       0.49740000
   103  C          0.55783000       0.69722000       0.62166170
   104  C          0.44217000       0.30278000       0.37833830
   105  H          0.65170000       0.75270000       0.66830000
   106  H          0.34830000       0.24730000       0.33170000
   107  C          0.45673000       0.60722000       0.65246190
   108  C          0.54327000       0.39278000       0.34753810
   109  H          0.48070000       0.59930000       0.72000000
   110  H          0.51930000       0.40070000       0.28000000
   111  C          0.32033000       0.52932000       0.58282000
   112  C          0.67967000       0.47068000       0.41718000
   113  H          0.25020000       0.46710000       0.60300000
   114  H          0.74980000       0.53290000       0.39700000
   115  C          0.28303000       0.53922000       0.48392180
   116  C          0.71697000       0.46078000       0.51607820
   117  C          0.13703000       0.46102000       0.40532000
   118  C          0.86297000       0.53898000       0.59468000
   119  H          0.06860000       0.50700000       0.38110000
   120  H          0.93140000       0.49300000       0.61890000
   121  H          0.07030000       0.40220000       0.43440000
   122  H          0.92970000       0.59780000       0.56560000
   123  H          0.17550000       0.42190000       0.34840000
   124  H          0.82450000       0.57810000       0.65160000
