data_TOWFIY
_symmetry_space_group_name_H-M    'P1'
_symmetry_Int_Tables_number       1
loop_
_symmetry_equiv_pos_site_id
_symmetry_equiv_pos_as_xyz
1 x,y,z
_cell_length_a                   7.48724
_cell_length_b                   23.46829
_cell_length_c                   7.92944
_cell_angle_alpha                90.0
_cell_angle_beta                 97.3635
_cell_angle_gamma                90.0
loop_
_atom_site_label
_atom_site_type_symbol
_atom_site_fract_x
_atom_site_fract_y
_atom_site_fract_z
     1  Br         0.28187600       0.36041200       0.00765500
     2  Br         0.71812400       0.86041200       0.49234500
     3  Br         0.71812400       0.63958800      -0.00765500
     4  Br         0.28187600       0.13958800       0.50765500
     5  O          0.92976000       0.38128130       0.17674000
     6  O          0.07024000       0.88128130       0.32326000
     7  O          0.07024000       0.61871870       0.82326000
     8  O          0.92976000       0.11871870       0.67674000
     9  O          0.23724000       0.22352140       0.03094000
    10  O          0.76276000       0.72352140       0.46906000
    11  O          0.76276000       0.77647860       0.96906000
    12  O          0.23724000       0.27647860       0.53094000
    13  N          0.11865000       0.31116140       0.09655000
    14  N          0.88135000       0.81116140       0.40345000
    15  N          0.88135000       0.68883860       0.90345000
    16  N          0.11865000       0.18883860       0.59655000
    17  C          0.96594000       0.33124190       0.16035000
    18  C          0.03406000       0.83124190       0.33965000
    19  C          0.03406000       0.66875810       0.83965000
    20  C          0.96594000       0.16875810       0.66035000
    21  C          0.86524000       0.28019180       0.20086000
    22  C          0.13476000       0.78019180       0.29914000
    23  C          0.13476000       0.71980820       0.79914000
    24  C          0.86524000       0.21980820       0.70086000
    25  C          0.95934000       0.23235180       0.16016000
    26  C          0.04066000       0.73235180       0.33984000
    27  C          0.04066000       0.76764820       0.83984000
    28  C          0.95934000       0.26764820       0.66016000
    29  C          0.12407000       0.25126180       0.08866000
    30  C          0.87593000       0.75126180       0.41134000
    31  C          0.87593000       0.74873820       0.91134000
    32  C          0.12407000       0.24873820       0.58866000
    33  C          0.70284000       0.27619190       0.26516000
    34  C          0.29716000       0.77619190       0.23484000
    35  C          0.29716000       0.72380810       0.73484000
    36  C          0.70284000       0.22380810       0.76516000
    37  H          0.63730000       0.30910000       0.28990000
    38  H          0.36270000       0.80910000       0.21010000
    39  H          0.36270000       0.69090000       0.71010000
    40  H          0.63730000       0.19090000       0.78990000
    41  C          0.63913000       0.22082000       0.29206000
    42  C          0.36087000       0.72082000       0.20794000
    43  C          0.36087000       0.77918000       0.70794000
    44  C          0.63913000       0.27918000       0.79206000
    45  H          0.52890000       0.21600000       0.33770000
    46  H          0.47110000       0.71600000       0.16230000
    47  H          0.47110000       0.78400000       0.66230000
    48  H          0.52890000       0.28400000       0.83770000
    49  C          0.73493000       0.17332000       0.25286000
    50  C          0.26507000       0.67332000       0.24714000
    51  C          0.26507000       0.82668000       0.74714000
    52  C          0.73493000       0.32668000       0.75286000
    53  H          0.68860000       0.13660000       0.27280000
    54  H          0.31140000       0.63660000       0.22720000
    55  H          0.31140000       0.86340000       0.72720000
    56  H          0.68860000       0.36340000       0.77280000
    57  C          0.89733000       0.17736190       0.18486000
    58  C          0.10267000       0.67736190       0.31514000
    59  C          0.10267000       0.82263810       0.81514000
    60  C          0.89733000       0.32263810       0.68486000
    61  H          0.96210000       0.14460000       0.15710000
    62  H          0.03790000       0.64460000       0.34290000
    63  H          0.03790000       0.85540000       0.84290000
    64  H          0.96210000       0.35540000       0.65710000
    65  O          0.47704000       0.42484120       0.89134000
    66  O          0.52296000       0.92484120       0.60866000
    67  O          0.52296000       0.57515880       0.10866000
    68  O          0.47704000       0.07515880       0.39134000
    69  O          0.16684000       0.54169120       0.33884000
    70  O          0.83316000       0.04169120       0.16116000
    71  O          0.83316000       0.45830880       0.66116000
    72  O          0.16684000       0.95830880       0.83884000
    73  N          0.39275000       0.45159140       0.75484000
    74  N          0.60725000       0.95159140       0.74516000
    75  N          0.60725000       0.54840860       0.24516000
    76  N          0.39275000       0.04840860       0.25484000
    77  C          0.33216000       0.42252180       0.61245000
    78  C          0.66784000       0.92252180       0.88755000
    79  C          0.66784000       0.57747820       0.38755000
    80  C          0.33216000       0.07747820       0.11245000
    81  H          0.34450000       0.38220000       0.61130000
    82  H          0.65550000       0.88220000       0.88870000
    83  H          0.65550000       0.61780000       0.38870000
    84  H          0.34450000       0.11780000       0.11130000
    85  C          0.25296000       0.44981180       0.46916000
    86  C          0.74704000       0.94981180       0.03084000
    87  C          0.74704000       0.55018820       0.53084000
    88  C          0.25296000       0.05018820       0.96916000
    89  H          0.21040000       0.42870000       0.36970000
    90  H          0.78960000       0.92870000       0.13030000
    91  H          0.78960000       0.57130000       0.63030000
    92  H          0.21040000       0.07130000       0.86970000
    93  C          0.23586000       0.50883190       0.47155000
    94  C          0.76414000       0.00883190       0.02845000
    95  C          0.76414000       0.49116810       0.52845000
    96  C          0.23586000       0.99116810       0.97155000
    97  C          0.29516000       0.53804180       0.62096000
    98  C          0.70484000       0.03804180       0.87904000
    99  C          0.70484000       0.46195820       0.37904000
   100  C          0.29516000       0.96195820       0.12096000
   101  H          0.28240000       0.57830000       0.62500000
   102  H          0.71760000       0.07830000       0.87500000
   103  H          0.71760000       0.42170000       0.37500000
   104  H          0.28240000       0.92170000       0.12500000
   105  C          0.37156000       0.50932170       0.76166000
   106  C          0.62844000       0.00932170       0.73834000
   107  C          0.62844000       0.49067830       0.23834000
   108  C          0.37156000       0.99067830       0.26166000
   109  H          0.40980000       0.52940000       0.86390000
   110  H          0.59020000       0.02940000       0.63610000
   111  H          0.59020000       0.47060000       0.13610000
   112  H          0.40980000       0.97060000       0.36390000
   113  C          0.11657000       0.51508190       0.17765000
   114  C          0.88343000       0.01508190       0.32235000
   115  C          0.88343000       0.48491810       0.82235000
   116  C          0.11657000       0.98491810       0.67765000
   117  H          0.07510000       0.54420000       0.09280000
   118  H          0.92490000       0.04420000       0.40720000
   119  H          0.92490000       0.45580000       0.90720000
   120  H          0.07510000       0.95580000       0.59280000
   121  H          0.01930000       0.48770000       0.18670000
   122  H         -0.01930000       0.98770000       0.31330000
   123  H         -0.01930000       0.51230000       0.81330000
   124  H          0.01930000       0.01230000       0.68670000
   125  H          0.22070000       0.49510000       0.14280000
   126  H          0.77930000      -0.00490000       0.35720000
   127  H          0.77930000       0.50490000       0.85720000
   128  H          0.22070000       0.00490000       0.64280000
