data_TOWFOE
_symmetry_space_group_name_H-M    'P1'
_symmetry_Int_Tables_number       1
loop_
_symmetry_equiv_pos_site_id
_symmetry_equiv_pos_as_xyz
1 x,y,z
_cell_length_a                   4.01438
_cell_length_b                   11.9702
_cell_length_c                   17.9534
_cell_angle_alpha                105.623
_cell_angle_beta                 95.923
_cell_angle_gamma                96.623
loop_
_atom_site_label
_atom_site_type_symbol
_atom_site_fract_x
_atom_site_fract_y
_atom_site_fract_z
     1  Br         0.01637800       0.67434300       0.71033200
     2  Br        -0.01637800       0.32565700       0.28966800
     3  O          0.30788000       0.50242000       0.79991160
     4  O          0.69212000       0.49758000       0.20008840
     5  O          0.30528000       0.89812000       0.85560160
     6  O          0.69472000       0.10188000       0.14439840
     7  N          0.26207000       0.69622000       0.80941150
     8  N          0.73793000       0.30378000       0.19058850
     9  C          0.37048000       0.60503000       0.83535190
    10  C          0.62952000       0.39497000       0.16464810
    11  C          0.56768000       0.66233000       0.91381190
    12  C          0.43232000       0.33767000       0.08618810
    13  C          0.56768000       0.78153000       0.93060190
    14  C          0.43232000       0.21847000       0.06939810
    15  C          0.37079000       0.80593000       0.86341190
    16  C          0.62921000       0.19407000       0.13658810
    17  C          0.72629000       0.85684000       0.00092000
    18  C          0.27371000       0.14316000      -0.00092000
    19  H          0.72610000       0.93910000       0.01260000
    20  H          0.27390000       0.06090000       0.98740000
    21  C          0.88511000       0.80814000       0.05382000
    22  C          0.11489000       0.19186000       0.94618000
    23  H         -0.00350000       0.85790000       0.10270000
    24  H          0.00350000       0.14210000       0.89730000
    25  C          0.88581000       0.68854000       0.03722000
    26  C          0.11419000       0.31146000       0.96278000
    27  H         -0.00230000       0.65760000       0.07470000
    28  H          0.00230000       0.34240000       0.92530000
    29  C          0.72499000       0.61294000       0.96642000
    30  C          0.27501000       0.38706000       0.03358000
    31  H          0.72330000       0.53060000       0.95460000
    32  H          0.27670000       0.46940000       0.04540000
    33  O          0.69824000       0.63652000       0.58159130
    34  O          0.30176000       0.36348000       0.41840870
    35  N          0.84544000       0.67512000       0.52862150
    36  N          0.15456000       0.32488000       0.47137850
    37  C          0.82102000       0.60513000       0.45551190
    38  C          0.17898000       0.39487000       0.54448810
    39  H          0.71120000       0.52630000       0.44280000
    40  H          0.28880000       0.47370000       0.55720000
    41  C          0.95432000       0.64673000       0.39893190
    42  C          0.04568000       0.35327000       0.60106810
    43  H          0.93270000       0.59610000       0.34730000
    44  H          0.06730000       0.40390000       0.65270000
    45  C          0.11977000       0.76073000       0.41525170
    46  C          0.88023000       0.23927000       0.58474830
    47  C          0.14838000       0.82893000       0.49272190
    48  C          0.85162000       0.17107000       0.50727810
    49  H          0.26210000       0.90730000       0.50740000
    50  H          0.73790000       0.09270000       0.49260000
    51  C          0.01468000       0.78473000       0.54817190
    52  C         -0.01468000       0.21527000       0.45182810
    53  H          0.04220000       0.83210000       0.60080000
    54  H         -0.04220000       0.16790000       0.39920000
    55  C          0.25007000       0.80863000       0.35454180
    56  C          0.74993000       0.19137000       0.64545820
    57  C          0.35458000       0.73663000       0.28897180
    58  C          0.64542000       0.26337000       0.71102820
    59  H          0.34300000       0.65490000       0.28330000
    60  H          0.65700000       0.34510000       0.71670000
    61  C          0.47419000       0.78194000       0.23232000
    62  C          0.52581000       0.21806000       0.76768000
    63  H          0.54560000       0.73140000       0.18820000
    64  H          0.45440000       0.26860000       0.81180000
    65  C          0.49089000       0.90044000       0.23922000
    66  C          0.50911000       0.09956000       0.76078000
    67  H          0.57620000       0.93160000       0.20040000
    68  H          0.42380000       0.06840000       0.79960000
    69  C          0.38329000       0.97243000       0.30252000
    70  C          0.61671000       0.02757000       0.69748000
    71  H          0.38890000       0.05350000       0.30700000
    72  H          0.61110000       0.94650000       0.69300000
    73  C          0.26668000       0.92753000       0.35972000
    74  C          0.73332000       0.07247000       0.64028000
    75  H          0.19620000       0.97870000       0.40370000
    76  H          0.80380000       0.02130000       0.59630000
