data_TOWGAR
_symmetry_space_group_name_H-M    'P1'
_symmetry_Int_Tables_number       1
loop_
_symmetry_equiv_pos_site_id
_symmetry_equiv_pos_as_xyz
1 x,y,z
_cell_length_a                   10.0472
_cell_length_b                   10.7692
_cell_length_c                   13.8333
_cell_angle_alpha                77.043
_cell_angle_beta                 78.883
_cell_angle_gamma                86.453
loop_
_atom_site_label
_atom_site_type_symbol
_atom_site_fract_x
_atom_site_fract_y
_atom_site_fract_z
     1  Br         0.09754500       0.30217500       0.15312400
     2  Br         0.90245500       0.69782500       0.84687600
     3  O          0.90756000       0.06684000       0.27053000
     4  O          0.09244000       0.93316000       0.72947000
     5  O          0.00874000       0.29454000       0.94377000
     6  O         -0.00874000       0.70546000       0.05623000
     7  N          0.97576000       0.20194000       0.11513000
     8  N          0.02424000       0.79806000       0.88487000
     9  C          0.90565000       0.09965000       0.18234000
    10  C          0.09435000       0.90035000       0.81766000
    11  C          0.83315000       0.04215000       0.11904000
    12  C          0.16685000       0.95785000       0.88096000
    13  C          0.86395000       0.11195000       0.01984000
    14  C          0.13605000       0.88805000       0.98016000
    15  C          0.95715000       0.21545000       0.01524000
    16  C          0.04285000       0.78455000       0.98476000
    17  C          0.80915000       0.08135000       0.94396000
    18  C          0.19085000       0.91865000       0.05604000
    19  H          0.82790000       0.13020000       0.87680000
    20  H          0.17210000       0.86980000       0.12320000
    21  C          0.72534000       0.97584000       0.97006000
    22  C          0.27466000       0.02416000       0.02994000
    23  H          0.68780000       0.95140000       0.91930000
    24  H          0.31220000       0.04860000       0.08070000
    25  C          0.69544000       0.90564000       0.06944000
    26  C          0.30456000       0.09436000       0.93056000
    27  H          0.63750000       0.83460000       0.08540000
    28  H          0.36250000       0.16540000       0.91460000
    29  C          0.74975000       0.93875000       0.14464000
    30  C          0.25025000       0.06125000       0.85536000
    31  H          0.72990000       0.89130000       0.21220000
    32  H          0.27010000       0.10870000       0.78780000
    33  Br         0.61943500       0.62612500       0.32227400
    34  Br         0.38056500       0.37387500       0.67772600
    35  O          0.39024000       0.79414000       0.21493000
    36  O          0.60976000       0.20586000       0.78507000
    37  O          0.53484000       0.74844000       0.51573000
    38  O          0.46516000       0.25156000       0.48427000
    39  N          0.48754000       0.74944000       0.35793000
    40  N          0.51246000       0.25056000       0.64207000
    41  C          0.47196000       0.78915000       0.44884000
    42  C          0.52804000       0.21085000       0.55116000
    43  C          0.36045000       0.88825000       0.44534000
    44  C          0.63955000       0.11175000       0.55466000
    45  C          0.31525000       0.90055000       0.35484000
    46  C          0.68475000       0.09945000       0.64516000
    47  C          0.39705000       0.81085000       0.29704000
    48  C          0.60295000       0.18915000       0.70296000
    49  C          0.21225000       0.98515000       0.33094000
    50  C          0.78775000       0.01485000       0.66906000
    51  H          0.18220000      -0.00620000       0.26860000
    52  H          0.81780000       0.00620000       0.73140000
    53  C          0.15336000       0.05735000       0.39964000
    54  C          0.84664000       0.94265000       0.60036000
    55  H          0.08190000       0.11640000       0.38490000
    56  H          0.91810000       0.88360000       0.61510000
    57  C          0.19866000       0.04325000       0.48974000
    58  C          0.80134000       0.95675000       0.51026000
    59  H          0.15670000       0.09270000       0.53640000
    60  H          0.84330000       0.90730000       0.46360000
    61  C          0.30366000       0.95896000       0.51414000
    62  C          0.69634000       0.04104000       0.48586000
    63  H          0.33460000       0.95070000       0.57590000
    64  H          0.66540000       0.04930000       0.42410000
    65  O          0.78524000       0.47944000       0.27593000
    66  O          0.21476000       0.52056000       0.72407000
    67  N          0.73254000       0.42964000       0.21223000
    68  N          0.26746000       0.57036000       0.78777000
    69  C          0.76326000       0.47976000       0.11204000
    70  C          0.23674000       0.52024000       0.88796000
    71  H          0.82700000       0.54600000       0.08660000
    72  H          0.17300000       0.45400000       0.91340000
    73  C          0.70166000       0.43415000       0.04754000
    74  C          0.29834000       0.56585000       0.95246000
    75  H          0.72320000       0.46960000       0.97710000
    76  H          0.27680000       0.53040000       0.02290000
    77  C          0.60826000       0.33695000       0.08234000
    78  C          0.39174000       0.66305000       0.91766000
    79  C          0.58325000       0.28385000       0.18614000
    80  C          0.41675000       0.71615000       0.81386000
    81  C          0.64646000       0.33165000       0.24744000
    82  C          0.35354000       0.66835000       0.75256000
    83  H          0.62970000       0.29480000       0.31770000
    84  H          0.37030000       0.70520000       0.68230000
    85  C          0.48566000       0.17726000       0.23165000
    86  C          0.51434000       0.82274000       0.76835000
    87  H          0.51950000       0.10130000       0.20570000
    88  H          0.48050000       0.89870000       0.79430000
    89  H          0.39680000       0.20280000       0.21350000
    90  H          0.60320000       0.79720000       0.78650000
    91  H          0.47690000       0.15780000       0.30520000
    92  H          0.52310000       0.84220000       0.69480000
    93  C          0.53596000       0.29157000       0.01205000
    94  C          0.46404000       0.70843000       0.98795000
    95  H          0.43810000       0.30710000       0.03040000
    96  H          0.56190000       0.69290000       0.96960000
    97  H          0.55380000       0.20000000       0.01680000
    98  H          0.44620000       0.80000000       0.98320000
    99  H          0.56850000       0.33780000       0.94260000
   100  H          0.43150000       0.66220000       0.05740000
   101  O          0.26264000       0.42044000       0.19583000
   102  O          0.73736000       0.57956000       0.80417000
   103  N          0.21964000       0.48024000       0.27093000
   104  N          0.78036000       0.51976000       0.72907000
   105  C          0.11765000       0.56785000       0.26544000
   106  C          0.88235000       0.43215000       0.73456000
   107  H          0.07680000       0.58550000       0.20720000
   108  H          0.92320000       0.41450000       0.79280000
   109  C          0.07125000       0.63185000       0.34044000
   110  C          0.92875000       0.36815000       0.65956000
   111  C          0.13225000       0.60625000       0.42604000
   112  C          0.86775000       0.39375000       0.57396000
   113  C          0.23655000       0.51635000       0.42934000
   114  C          0.76345000       0.48365000       0.57066000
   115  H          0.27890000       0.49690000       0.48680000
   116  H          0.72110000       0.50310000       0.51320000
   117  C          0.28035000       0.45496000       0.35264000
   118  C          0.71965000       0.54504000       0.64736000
   119  H          0.35320000       0.39450000       0.35650000
   120  H          0.64680000       0.60550000       0.64350000
   121  C          0.95784000       0.72885000       0.32764000
   122  C          0.04216000       0.27115000       0.67236000
   123  H          0.92970000       0.73220000       0.26300000
   124  H          0.07030000       0.26780000       0.73700000
   125  H          0.98940000       0.81280000       0.32850000
   126  H          0.01060000       0.18720000       0.67150000
   127  H          0.88070000       0.70470000       0.38290000
   128  H          0.11930000       0.29530000       0.61710000
   129  C          0.08306000       0.67265000       0.51204000
   130  C          0.91694000       0.32735000       0.48796000
   131  H          0.09370000       0.76480000       0.48740000
   132  H          0.90630000       0.23520000       0.51260000
   133  H          0.13640000       0.64200000       0.56530000
   134  H          0.86360000       0.35800000       0.43470000
   135  H          0.98710000       0.65410000       0.53920000
   136  H          0.01290000       0.34590000       0.46080000
