data_TOWLAW
_symmetry_space_group_name_H-M    'P1'
_symmetry_Int_Tables_number       1
loop_
_symmetry_equiv_pos_site_id
_symmetry_equiv_pos_as_xyz
1 x,y,z
_cell_length_a                   8.295717
_cell_length_b                   14.2863
_cell_length_c                   16.3083
_cell_angle_alpha                74.673
_cell_angle_beta                 84.303
_cell_angle_gamma                81.263
loop_
_atom_site_label
_atom_site_type_symbol
_atom_site_fract_x
_atom_site_fract_y
_atom_site_fract_z
     1  I          0.52421600       0.40266400       0.27662300
     2  I          0.47578400       0.59733600       0.72337700
     3  O          0.50167000       0.57564000       0.20423000
     4  O          0.49833000       0.42436000       0.79577000
     5  O          0.25327000       0.61205000       0.11564000
     6  O          0.74673000       0.38795000       0.88436000
     7  O          0.37608000       0.21445000       0.24914000
     8  O          0.62392000       0.78555000       0.75086000
     9  O          0.70108000       0.25495000       0.44294000
    10  O          0.29892000       0.74505000       0.55706000
    11  N          0.52378000       0.59445000       0.11874000
    12  N          0.47622000       0.40555000       0.88126000
    13  N          0.53618000       0.25555000       0.33834000
    14  N          0.46382000       0.74445000       0.66166000
    15  C          0.39349000       0.61456000       0.06925000
    16  C          0.60651000       0.38544000       0.93075000
    17  C          0.42071100       0.63506000       0.98175000
    18  C          0.57928900       0.36494000       0.01825000
    19  H          0.33100000       0.65030000       0.94640000
    20  H          0.66900000       0.34970000       0.05360000
    21  C          0.57881100       0.63346000       0.94565000
    22  C          0.42118900       0.36654000       0.05435000
    23  H          0.59800000       0.64800000       0.88550000
    24  H          0.40200000       0.35200000       0.11450000
    25  C          0.70971000       0.61026000      -0.00225000
    26  C          0.29029000       0.38974000       0.00225000
    27  H          0.81870000       0.60750000       0.97350000
    28  H          0.18130000       0.39250000       0.02650000
    29  C          0.67971000       0.59136000       0.08415000
    30  C          0.32029000       0.40864000       0.91585000
    31  H          0.76840000       0.57590000       0.12010000
    32  H          0.23160000       0.42410000       0.87990000
    33  C          0.10541100       0.64059000       0.07027000
    34  C          0.89458900       0.35941000       0.92973000
    35  H          0.09860000       0.59430000       0.03610000
    36  H          0.90140000       0.40570000       0.96390000
    37  H          0.10690000       0.70650000       0.03270000
    38  H          0.89310000       0.29350000       0.96730000
    39  H          0.01050000       0.64020000       0.11120000
    40  H         -0.01050000       0.35980000       0.88880000
    41  C          0.45561100       0.19116000       0.31225000
    42  C          0.54438900       0.80884000       0.68775000
    43  C          0.48351300       0.09327000       0.37406000
    44  C          0.51648700       0.90673000       0.62594000
    45  H          0.52860000       0.04200000       0.34430000
    46  H          0.47140000       0.95800000       0.65570000
    47  H          0.38030000       0.07540000       0.40640000
    48  H          0.61970000       0.92460000       0.59360000
    49  C          0.60601300       0.10537000       0.43316000
    50  C          0.39398700       0.89463000       0.56684000
    51  H          0.56510000       0.08450000       0.49330000
    52  H          0.43490000       0.91550000       0.50670000
    53  H          0.71230000       0.06550000       0.42520000
    54  H          0.28770000       0.93450000       0.57480000
    55  C          0.62401000       0.21167000       0.40895000
    56  C          0.37599000       0.78833000       0.59105000
    57  I          0.32188700       0.68655400       0.28380400
    58  I          0.67811300       0.31344600       0.71619600
    59  O          0.28731000       0.92225000       0.26465000
    60  O          0.71269000       0.07775000       0.73535000
    61  O          0.05209000       0.67225000       0.44774000
    62  O          0.94791000       0.32775000       0.55226000
    63  N          0.19359000       0.78185000       0.34945000
    64  N          0.80641000       0.21815000       0.65055000
    65  C          0.20411200       0.88347000       0.32446000
    66  C          0.79588800       0.11653000       0.67554000
    67  C          0.09251300       0.92697000       0.38527000
    68  C          0.90748700       0.07303000       0.61473000
    69  H          0.01400000       0.98060000       0.35390000
    70  H          0.98600000       0.01940000       0.64610000
    71  H          0.15570000       0.95400000       0.41980000
    72  H          0.84430000       0.04600000       0.58020000
    73  C          0.00381200       0.84828000       0.44106000
    74  C         -0.00381200       0.15172000       0.55894000
    75  H          0.88580000       0.86120000       0.43090000
    76  H          0.11420000       0.13880000       0.56910000
    77  H          0.01710000       0.84260000       0.50180000
    78  H          0.98290000       0.15740000       0.49820000
    79  C          0.08181100       0.75667000       0.41625000
    80  C          0.91818900       0.24333000       0.58375000
    81  I          0.86352600       0.16018400       0.18867300
    82  I          0.13647400       0.83981600       0.81132700
    83  O          0.93137000       0.39354000       0.11914000
    84  O          0.06863000       0.60646000       0.88086000
    85  O          0.02939000       0.15425000       0.36194000
    86  O          0.97061000       0.84575000       0.63806000
    87  N          0.96138000       0.26095000       0.23424000
    88  N          0.03862000       0.73905000       0.76576000
    89  C          0.97011000       0.35646000       0.19115000
    90  C          0.02989000       0.64354000       0.80885000
    91  C          0.04061100       0.40456000       0.24935000
    92  C          0.95938900       0.59544000       0.75065000
    93  H          0.14850000       0.42430000       0.22560000
    94  H          0.85150000       0.57570000       0.77440000
    95  H          0.96660000       0.46310000       0.25720000
    96  H          0.03340000       0.53690000       0.74280000
    97  C          0.05721100       0.32746000       0.33285000
    98  C          0.94278900       0.67254000       0.66715000
    99  H          0.16980000       0.31780000       0.35160000
   100  H          0.83020000       0.68220000       0.64840000
   101  H          0.97990000       0.34650000       0.37770000
   102  H          0.02010000       0.65350000       0.62230000
   103  C          0.01821000       0.23676000       0.31505000
   104  C          0.98179000       0.76324000       0.68495000
   105  O          0.73107000       0.03554000       0.14604000
   106  O          0.26893000       0.96446000       0.85396000
   107  O          0.82307000       0.07405000       0.99086000
   108  O          0.17693000       0.92595000       0.00914000
   109  N          0.61478000       0.07324000       0.08934000
   110  N          0.38522000       0.92676000       0.91066000
   111  C          0.45531100       0.08776000       0.11786000
   112  C          0.54468900       0.91224000       0.88214000
   113  H          0.42510000       0.07170000       0.17710000
   114  H          0.57490000       0.92830000       0.82290000
   115  C          0.33921200       0.12567000       0.05956000
   116  C          0.66078800       0.87433000       0.94044000
   117  H          0.22750000       0.13690000       0.07840000
   118  H          0.77250000       0.86310000       0.92160000
   119  C          0.38371200       0.14757000       0.97354000
   120  C          0.61628800       0.85243000       0.02646000
   121  H          0.30280000       0.17360000       0.93340000
   122  H          0.69720000       0.82640000       0.06660000
   123  C          0.54661100       0.13156000       0.94575000
   124  C          0.45338900       0.86844000       0.05425000
   125  H          0.57810000       0.14610000       0.88660000
   126  H          0.42190000       0.85390000       0.11340000
   127  C          0.66251000       0.09406000       0.00535000
   128  C          0.33749000       0.90594000      -0.00535000
   129  C          0.88711300       0.09348000       0.90214000
   130  C          0.11288700       0.90652000       0.09786000
   131  H          0.85420000       0.16220000       0.87350000
   132  H          0.14580000       0.83780000       0.12650000
   133  H          0.84360000       0.05120000       0.87360000
   134  H          0.15640000       0.94880000       0.12640000
   135  H          0.00670000       0.07980000       0.90010000
   136  H         -0.00670000       0.92020000       0.09990000
   137  I          0.72975700       0.86625600       0.25341300
   138  I          0.27024300       0.13374400       0.74658700
   139  O          0.84348000       0.63895000       0.24604000
   140  O          0.15652000       0.36105000       0.75396000
   141  O          0.63561000       0.78494000       0.45655000
   142  O          0.36439000       0.21506000       0.54345000
   143  N          0.73479000       0.73204000       0.33874000
   144  N          0.26521000       0.26796000       0.66126000
   145  C          0.79061100       0.64423000       0.31596000
   146  C          0.20938900       0.35577000       0.68404000
   147  C          0.77321500       0.56313000       0.39546000
   148  C          0.22678500       0.43687000       0.60454000
   149  H          0.88180000       0.52780000       0.41220000
   150  H          0.11820000       0.47220000       0.58780000
   151  H          0.70580000       0.51600000       0.38580000
   152  H          0.29420000       0.48400000       0.61420000
   153  C          0.69111500       0.61102000       0.46406000
   154  C          0.30888500       0.38898000       0.53594000
   155  H          0.58090000       0.59130000       0.48160000
   156  H          0.41910000       0.40870000       0.51840000
   157  H          0.75690000       0.59260000       0.51460000
   158  H          0.24310000       0.40740000       0.48540000
   159  C          0.67991200       0.71922000       0.42386000
   160  C          0.32008800       0.28078000       0.57614000
