data_TOWMAX
_symmetry_space_group_name_H-M    'P1'
_symmetry_Int_Tables_number       1
loop_
_symmetry_equiv_pos_site_id
_symmetry_equiv_pos_as_xyz
1 x,y,z
_cell_length_a                   8.337312
_cell_length_b                   11.1372
_cell_length_c                   11.146016
_cell_angle_alpha                80.61214
_cell_angle_beta                 71.45513
_cell_angle_gamma                74.52714
loop_
_atom_site_label
_atom_site_type_symbol
_atom_site_fract_x
_atom_site_fract_y
_atom_site_fract_z
     1  I          0.62217400       0.22787300       0.90141300
     2  I          0.37782600       0.77212700       0.09858700
     3  O          0.46845000       0.22974000       0.11883000
     4  O          0.53155000       0.77026000       0.88117000
     5  O          0.66704000       0.43944000       0.65753000
     6  O          0.33296000       0.56056000       0.34247000
     7  O          0.92145000       0.02724000       0.70664000
     8  O          0.07855000       0.97276000       0.29336000
     9  N          0.30206000       0.29145000       0.13464000
    10  N          0.69794000       0.70855000       0.86536000
    11  N          0.76625000       0.23194000       0.70704000
    12  N          0.23375000       0.76806000       0.29296000
    13  C          0.18447000       0.23106000       0.13085000
    14  C          0.81553000       0.76894000       0.86915000
    15  H          0.22010000       0.14450000       0.11770000
    16  H          0.77990000       0.85550000       0.88230000
    17  C          0.01237000       0.29206000       0.14565000
    18  C          0.98763000       0.70794000       0.85435000
    19  C          0.96083000       0.41856000       0.16425000
    20  C          0.03917000       0.58144000       0.83575000
    21  C          0.08487000       0.47706000       0.16985000
    22  C          0.91513000       0.52294000       0.83015000
    23  H          0.05230000       0.56310000       0.18410000
    24  H          0.94770000       0.43690000       0.81590000
    25  C          0.25497000       0.41246000       0.15505000
    26  C          0.74503000       0.58754000       0.84495000
    27  H          0.33850000       0.45400000       0.15930000
    28  H          0.66150000       0.54600000       0.84070000
    29  C          0.88862000       0.21626000       0.14087000
    30  C          0.11138000       0.78374000       0.85913000
    31  H          0.95400000       0.13140000       0.11950000
    32  H          0.04600000       0.86860000       0.88050000
    33  H          0.83030000       0.25610000       0.07590000
    34  H          0.16970000       0.74390000       0.92410000
    35  H          0.80180000       0.21210000       0.22380000
    36  H          0.19820000       0.78790000       0.77620000
    37  C          0.77713000       0.48967000       0.17816000
    38  C          0.22287000       0.51033000       0.82184000
    39  H          0.70110000       0.45910000       0.25750000
    40  H          0.29890000       0.54090000       0.74250000
    41  H          0.74120000       0.47740000       0.10620000
    42  H          0.25880000       0.52260000       0.89380000
    43  H          0.76900000       0.57870000       0.17980000
    44  H          0.23100000       0.42130000       0.82020000
    45  C          0.76257000       0.33825000       0.62695000
    46  C          0.23743000       0.66175000       0.37305000
    47  C          0.88927000       0.30896000       0.49855000
    48  C          0.11073000       0.69104000       0.50145000
    49  H          0.97220000       0.36400000       0.47160000
    50  H          0.02780000       0.63600000       0.52840000
    51  H          0.82720000       0.31970000       0.43370000
    52  H          0.17280000       0.68030000       0.56630000
    53  C          0.98377000       0.17226000       0.51725000
    54  C          0.01623000       0.82774000       0.48275000
    55  H          0.97340000       0.12170000       0.45580000
    56  H          0.02660000       0.87830000       0.54420000
    57  H          0.10840000       0.16540000       0.50580000
    58  H          0.89160000       0.83460000       0.49420000
    59  C          0.89447000       0.12916000       0.65155000
    60  C          0.10553000       0.87084000       0.34845000
    61  I          0.63788400       0.64114400       0.51117400
    62  I          0.36211600       0.35885600       0.48882600
    63  O          0.87455000       0.76024000       0.24404000
    64  O          0.12545000       0.23976000       0.75596000
    65  O          0.33775000       0.90094000       0.51494000
    66  O          0.66225000       0.09906000       0.48506000
    67  N          0.60896000       0.80514000       0.39434000
    68  N          0.39104000       0.19486000       0.60566000
    69  C          0.73538000       0.82976000       0.28276000
    70  C          0.26462000       0.17024000       0.71724000
    71  C          0.66498000       0.95816000       0.22556000
    72  C          0.33502000       0.04184000       0.77444000
    73  H          0.66510000       0.95410000       0.13740000
    74  H          0.33490000       0.04590000       0.86260000
    75  H          0.73590000       0.01680000       0.22470000
    76  H          0.26410000       0.98320000       0.77530000
    77  C          0.48047000      -0.00044000       0.31016000
    78  C          0.51953000       0.00044000       0.68984000
    79  H          0.46280000       0.08240000       0.34000000
    80  H          0.53720000       0.91760000       0.66000000
    81  H          0.39520000       0.00510000       0.26340000
    82  H          0.60480000      -0.00510000       0.73660000
    83  C          0.45957000       0.90175000       0.42026000
    84  C          0.54043000       0.09825000       0.57974000
