data_TOWQOP
_symmetry_space_group_name_H-M    'P1'
_symmetry_Int_Tables_number       1
loop_
_symmetry_equiv_pos_site_id
_symmetry_equiv_pos_as_xyz
1 x,y,z
_cell_length_a                   18.7344
_cell_length_b                   6.569313
_cell_length_c                   13.4523
_cell_angle_alpha                90.0
_cell_angle_beta                 95.873
_cell_angle_gamma                90.0
loop_
_atom_site_label
_atom_site_type_symbol
_atom_site_fract_x
_atom_site_fract_y
_atom_site_fract_z
     1  Br         0.33890200       0.11076400       0.02479200
     2  Br         0.66109800       0.61076400       0.47520800
     3  Br         0.66109800       0.88923600       0.97520800
     4  Br         0.33890200       0.38923600       0.52479200
     5  O          0.40165900       0.21913000       0.82032870
     6  O          0.59834100       0.71913000       0.67967130
     7  O          0.59834100       0.78087000       0.17967130
     8  O          0.40165900       0.28087000       0.32032870
     9  O          0.42342900       0.70237000       0.04881130
    10  O          0.57657100       0.20237000       0.45118870
    11  O          0.57657100       0.29763000       0.95118870
    12  O          0.42342900       0.79763000       0.54881130
    13  N          0.40421900      -0.01573000       0.94809860
    14  N          0.59578100       0.48427000       0.55190140
    15  N          0.59578100       0.01573000       0.05190140
    16  N          0.40421900       0.51573000       0.44809860
    17  C          0.43223120       0.79206000       0.97230820
    18  C          0.56776880       0.29206000       0.52769180
    19  C          0.56776880       0.20794000       0.02769180
    20  C          0.43223120       0.70794000       0.47230820
    21  C          0.47199130       0.72176000       0.88690810
    22  C          0.52800870       0.22176000       0.61309190
    23  C          0.52800870       0.27824000       0.11309190
    24  C          0.47199130       0.77824000       0.38690810
    25  H          0.44690000       0.60600000       0.85160000
    26  H          0.55310000       0.10600000       0.64840000
    27  H          0.55310000       0.39400000       0.14840000
    28  H          0.44690000       0.89400000       0.35160000
    29  H          0.52140000       0.67910000       0.91120000
    30  H          0.47860000       0.17910000       0.58880000
    31  H          0.47860000       0.32090000       0.08880000
    32  H          0.52140000       0.82090000       0.41120000
    33  C          0.47315120       0.90716000       0.81770820
    34  C          0.52684880       0.40716000       0.68229180
    35  C          0.52684880       0.09284000       0.18229180
    36  C          0.47315120       0.59284000       0.31770820
    37  H          0.52220000       0.96420000       0.81990000
    38  H          0.47780000       0.46420000       0.68010000
    39  H          0.47780000       0.03580000       0.18010000
    40  H          0.52220000       0.53580000       0.31990000
    41  H          0.45670000       0.86920000       0.74790000
    42  H          0.54330000       0.36920000       0.75210000
    43  H          0.54330000       0.13080000       0.25210000
    44  H          0.45670000       0.63080000       0.24790000
    45  C          0.42266120       0.05964000       0.85686830
    46  C          0.57733880       0.55964000       0.64313170
    47  C          0.57733880       0.94036000       0.14313170
    48  C          0.42266120       0.44036000       0.35686830
    49  O          0.24504800       0.23313000       0.12519130
    50  O          0.75495200       0.73313000       0.37480870
    51  O          0.75495200       0.76687000       0.87480870
    52  O          0.24504800       0.26687000       0.62519130
    53  N          0.25033900       0.39903000       0.18315140
    54  N          0.74966100       0.89903000       0.31684860
    55  N          0.74966100       0.60097000       0.81684860
    56  N          0.25033900       0.10097000       0.68315140
    57  C          0.21025120       0.40874000       0.26107170
    58  C          0.78974880       0.90874000       0.23892830
    59  C          0.78974880       0.59126000       0.73892830
    60  C          0.21025120       0.09126000       0.76107170
    61  H          0.17980000       0.29820000       0.27400000
    62  H          0.82020000       0.79820000       0.22600000
    63  H          0.82020000       0.70180000       0.72600000
    64  H          0.17980000       0.20180000       0.77400000
    65  C          0.21324120       0.57774000       0.32168170
    66  C          0.78675880       0.07774000       0.17831830
    67  C          0.78675880       0.42226000       0.67831830
    68  C          0.21324120       0.92226000       0.82168170
    69  H          0.18460000       0.58280000       0.37600000
    70  H          0.81540000       0.08280000       0.12400000
    71  H          0.81540000       0.41720000       0.62400000
    72  H          0.18460000       0.91720000       0.87600000
    73  C          0.25746120       0.74124000       0.30468180
    74  C          0.74253880       0.24124000       0.19531820
    75  C          0.74253880       0.25876000       0.69531820
    76  C          0.25746120       0.75876000       0.80468180
    77  C          0.29709120       0.72534000       0.22306180
    78  C          0.70290880       0.22534000       0.27693820
    79  C          0.70290880       0.27466000       0.77693820
    80  C          0.29709120       0.77466000       0.72306180
    81  H          0.32720000       0.83490000       0.20790000
    82  H          0.67280000       0.33490000       0.29210000
    83  H          0.67280000       0.16510000       0.79210000
    84  H          0.32720000       0.66510000       0.70790000
    85  C          0.29354120       0.55494000       0.16407180
    86  C          0.70645880       0.05494000       0.33592820
    87  C          0.70645880       0.44506000       0.83592820
    88  C          0.29354120       0.94506000       0.66407180
    89  H          0.32170000       0.54660000       0.10940000
    90  H          0.67830000       0.04660000       0.39060000
    91  H          0.67830000       0.45340000       0.89060000
    92  H          0.32170000       0.95340000       0.60940000
    93  C          0.26226140       0.92314000       0.37212000
    94  C          0.73773860       0.42314000       0.12788000
    95  C          0.73773860       0.07686000       0.62788000
    96  C          0.26226140       0.57686000       0.87212000
    97  H          0.21430000      -0.01900000       0.37480000
    98  H          0.78570000       0.48100000       0.12520000
    99  H          0.78570000       0.01900000       0.62520000
   100  H          0.21430000       0.51900000       0.87480000
   101  H          0.29370000       0.02540000       0.34620000
   102  H          0.70630000       0.52540000       0.15380000
   103  H          0.70630000       0.97460000       0.65380000
   104  H          0.29370000       0.47460000       0.84620000
   105  H          0.28200000       0.88210000       0.43940000
   106  H          0.71800000       0.38210000       0.06060000
   107  H          0.71800000       0.11790000       0.56060000
   108  H          0.28200000       0.61790000       0.93940000
   109  Br         0.12904200       0.25783300       0.01896200
   110  Br         0.87095800       0.75783300       0.48103800
   111  Br         0.87095800       0.74216700       0.98103800
   112  Br         0.12904200       0.24216700       0.51896200
   113  O          0.96657100       0.18473000       0.05615120
   114  O          0.03342900       0.68473000       0.44384880
   115  O          0.03342900       0.81527000       0.94384880
   116  O          0.96657100       0.31527000       0.55615120
   117  O          0.08814800       0.41493000       0.80069880
   118  O          0.91185200       0.91493000       0.69930120
   119  O          0.91185200       0.58507000       0.19930120
   120  O          0.08814800       0.08507000       0.30069880
   121  N          0.04133100       0.29033000       0.94022860
   122  N          0.95866900       0.79033000       0.55977140
   123  N          0.95866900       0.70967000       0.05977140
   124  N          0.04133100       0.20967000       0.44022860
   125  C          0.97522880       0.23673000       0.97224830
   126  C          0.02477120       0.73673000       0.52775170
   127  C          0.02477120       0.76327000       0.02775170
   128  C          0.97522880       0.26327000       0.47224830
   129  C          0.92049880       0.25624000       0.88238830
   130  C          0.07950120       0.75624000       0.61761170
   131  C          0.07950120       0.74376000       0.11761170
   132  C          0.92049880       0.24376000       0.38238830
   133  H          0.87740000       0.32960000       0.90000000
   134  H          0.12260000       0.82960000       0.60000000
   135  H          0.12260000       0.67040000       0.10000000
   136  H          0.87740000       0.17040000       0.40000000
   137  H          0.90580000       0.12030000       0.85580000
   138  H          0.09420000       0.62030000       0.64420000
   139  H          0.09420000       0.87970000       0.14420000
   140  H          0.90580000       0.37970000       0.35580000
   141  C          0.95842880       0.37694000       0.80572830
   142  C          0.04157120       0.87694000       0.69427170
   143  C          0.04157120       0.62306000       0.19427170
   144  C          0.95842880       0.12306000       0.30572830
   145  H          0.94950000       0.31510000       0.73850000
   146  H          0.05050000       0.81510000       0.76150000
   147  H          0.05050000       0.68490000       0.26150000
   148  H          0.94950000       0.18490000       0.23850000
   149  H          0.94170000       0.51990000       0.80230000
   150  H          0.05830000       0.01990000       0.69770000
   151  H          0.05830000       0.48010000       0.19770000
   152  H          0.94170000      -0.01990000       0.30230000
   153  C          0.03724120       0.36574000       0.84361830
   154  C          0.96275880       0.86574000       0.65638170
   155  C          0.96275880       0.63426000       0.15638170
   156  C          0.03724120       0.13426000       0.34361830
