data_TOWTOS
_symmetry_space_group_name_H-M    'P1'
_symmetry_Int_Tables_number       1
loop_
_symmetry_equiv_pos_site_id
_symmetry_equiv_pos_as_xyz
1 x,y,z
_cell_length_a                   8.32945
_cell_length_b                   10.24258
_cell_length_c                   19.266815
_cell_angle_alpha                76.7972
_cell_angle_beta                 88.9223
_cell_angle_gamma                66.0184
loop_
_atom_site_label
_atom_site_type_symbol
_atom_site_fract_x
_atom_site_fract_y
_atom_site_fract_z
     1  I          0.23406110       0.02865100       0.50100500
     2  I          0.76593890       0.97134900       0.49899500
     3  O          0.87829000       0.77631000       0.95234000
     4  O          0.12171000       0.22369000       0.04766000
     5  O          0.60951000       0.22429000       0.05024000
     6  O          0.39049000       0.77571000       0.94976000
     7  N          0.13931400       0.97388500       0.61016000
     8  N          0.86068600       0.02611500       0.38984000
     9  N          0.98178800       0.85639000       0.81195000
    10  N          0.01821200       0.14361000       0.18805000
    11  N          0.32691200       0.08231100       0.39175000
    12  N          0.67308800       0.91768900       0.60825000
    13  N          0.50981100       0.16439000       0.19155000
    14  N          0.49018900       0.83561000       0.80845000
    15  C          0.11101500       0.79068600       0.70447000
    16  C          0.88898500       0.20931400       0.29553000
    17  H          0.13113100       0.69041600       0.72231000
    18  H          0.86886900       0.30958400       0.27769000
    19  C          0.16411600       0.83578400       0.63948000
    20  C          0.83588400       0.16421600       0.36052000
    21  H          0.22279400       0.76365000       0.61337100
    22  H          0.77720600       0.23635000       0.38662900
    23  C          0.05641600       0.07651500       0.64797000
    24  C          0.94358400       0.92348500       0.35203000
    25  H          0.04081000       0.17517700       0.62827500
    26  H          0.95919000       0.82482300       0.37172500
    27  C         -0.00351500       0.04481300       0.71087000
    28  C          0.00351500       0.95518700       0.28913000
    29  H          0.93373300       0.12165100       0.73366700
    30  H          0.06626700       0.87834900       0.26633300
    31  C          0.02481400       0.89598700       0.74527000
    32  C          0.97518600       0.10401300       0.25473000
    33  C         -0.00081600       0.70558700       0.84347000
    34  C          0.00081600       0.29441300       0.15653000
    35  H          0.10333700       0.63477200       0.82597000
    36  H          0.89666300       0.36522800       0.17403000
    37  H          0.89360100       0.69505200       0.82768000
    38  H          0.10639900       0.30494800       0.17232000
    39  C          0.01971600       0.66888600       0.92527000
    40  C          0.98028400       0.33111400       0.07473000
    41  H          0.02060800       0.57040100       0.94466000
    42  H          0.97939200       0.42959900       0.05534000
    43  H          0.13351900       0.66610700       0.94127300
    44  H          0.86648100       0.33389300       0.05872700
    45  C          0.88708400       0.91478700       0.92647000
    46  C          0.11291600       0.08521300       0.07353000
    47  H          0.00484100       0.90624000       0.94118700
    48  H         -0.00484100       0.09376000       0.05881300
    49  H          0.79806800       0.98868500       0.94842300
    50  H          0.20193200       0.01131500       0.05157700
    51  C          0.85468600       0.96788800       0.84566000
    52  C          0.14531400       0.03211200       0.15434000
    53  H          0.73296800       0.98570500       0.83068400
    54  H          0.26703200       0.01429500       0.16931600
    55  H          0.86771500       0.06182800       0.82972800
    56  H          0.13228500       0.93817200       0.17027200
    57  C          0.35271500       0.25161300       0.29147000
    58  C          0.64728500       0.74838700       0.70853000
    59  H          0.32648800       0.35139400       0.26849500
    60  H          0.67351200       0.64860600       0.73150500
    61  C          0.29311600       0.21741400       0.35557000
    62  C          0.70688400       0.78258600       0.64443000
    63  H          0.22190700       0.29599400       0.37585800
    64  H          0.77809300       0.70400600       0.62414200
    65  C          0.42881500       0.96938700       0.36347000
    66  C          0.57118500       0.03061300       0.63653000
    67  H          0.45534300       0.87141000       0.38956100
    68  H          0.54465700       0.12859000       0.61043900
    69  C          0.49511500      -0.00841200       0.29846000
    70  C          0.50488500       0.00841200       0.70154000
    71  H          0.56759800       0.90936200       0.28061000
    72  H          0.43240200       0.09063800       0.71939000
    73  C          0.45681400       0.13501200       0.25786000
    74  C          0.54318600       0.86498800       0.74214000
    75  C          0.50341500       0.30991200       0.15746000
    76  C          0.49658500       0.69008800       0.84254000
    77  H          0.61507700       0.31450200       0.17042000
    78  H          0.38492300       0.68549800       0.82958000
    79  H          0.40574100       0.38626500       0.17495000
    80  H          0.59425900       0.61373500       0.82505000
    81  C          0.47591700       0.33981300       0.07716000
    82  C          0.52408300       0.66018700       0.92284000
    83  H          0.35789500       0.34673300       0.06392100
    84  H          0.64210500       0.65326700       0.93607900
    85  H          0.48042800       0.43523900       0.05469400
    86  H          0.51957200       0.56476100       0.94530600
    87  C          0.59391500       0.08981300       0.07956000
    88  C          0.40608500       0.91018700       0.92044000
    89  H          0.67831700       0.01145800       0.05856000
    90  H          0.32168300       0.98854200       0.94144000
    91  H          0.47345300       0.10138200       0.06682800
    92  H          0.52654700       0.89861800       0.93317200
    93  C          0.62991400       0.04441100       0.15976000
    94  C          0.37008600       0.95558900       0.84024000
    95  H          0.61154200       0.95362400       0.17883400
    96  H          0.38845800       0.04637600       0.82116600
    97  H          0.75397900       0.02318700       0.17263500
    98  H          0.24602100       0.97681300       0.82736500
    99  S          0.02094000       0.67684000       0.14112000
   100  S          0.97906000       0.32316000       0.85888000
   101  O          0.13051100       0.56449000       0.10645000
   102  O          0.86948900       0.43551000       0.89355000
   103  O          0.00051200       0.82389000       0.10625000
   104  O         -0.00051200       0.17611000       0.89375000
   105  O          0.97178600       0.58181100       0.33296000
   106  O          0.02821400       0.41818900       0.66704000
   107  N          0.08411300       0.63441100       0.22536000
   108  N          0.91588700       0.36558900       0.77464000
   109  C          0.81148400       0.67301200       0.15037000
   110  C          0.18851600       0.32698800       0.84963000
   111  C          0.67718500       0.69741200       0.10108000
   112  C          0.32281500       0.30258800       0.89892000
   113  H          0.68607200       0.71918700       0.05077600
   114  H          0.31392800       0.28081300       0.94922400
   115  C          0.52408500       0.68691100       0.13207000
   116  C          0.47591500       0.31308900       0.86793000
   117  H          0.42486100       0.70859400       0.10074900
   118  H          0.57513900       0.29140600       0.89925100
   119  C          0.51338400       0.64991300       0.19948000
   120  C          0.48661600       0.35008700       0.80052000
   121  H          0.41017300       0.63934600       0.21596700
   122  H          0.58982700       0.36065400       0.78403300
   123  C          0.64088400       0.62581400       0.24658000
   124  C          0.35911600       0.37418600       0.75342000
   125  H          0.62669300       0.60155000       0.29611600
   126  H          0.37330700       0.39845000       0.70388400
   127  C          0.79648500       0.63571200       0.22417000
   128  C          0.20351500       0.36428800       0.77583000
   129  C          0.95878400       0.61731400       0.26608000
   130  C          0.04121600       0.38268600       0.73392000
   131  O          0.18770000       0.53030000       0.50191400
   132  O          0.81230000       0.46970000       0.49808600
   133  C          0.32450000       0.49040000       0.46920000
   134  C          0.67550000       0.50960000       0.53080000
   135  C          0.36250000       0.54640000       0.39520000
   136  C          0.63750000       0.45360000       0.60480000
   137  H          0.27055800       0.55529200       0.36059500
   138  H          0.72944200       0.44470800       0.63940500
   139  H          0.47744800       0.47644400       0.38436800
   140  H          0.52255200       0.52355600       0.61563200
   141  H          0.36522200       0.64199600       0.39045600
   142  H          0.63477800       0.35800400       0.60954400
   143  C          0.44050000       0.35440000       0.49620000
   144  C          0.55950000       0.64560000       0.50380000
   145  H          0.55797700       0.35426600       0.50195700
   146  H          0.44202300       0.64573400       0.49804300
   147  H          0.44509700       0.29212800       0.46364500
   148  H          0.55490300       0.70787200       0.53635500
   149  H          0.40742600       0.31601500       0.54258400
   150  H          0.59257400       0.68398500       0.45741600
