data_TOWYEN
_symmetry_space_group_name_H-M    'P1'
_symmetry_Int_Tables_number       1
loop_
_symmetry_equiv_pos_site_id
_symmetry_equiv_pos_as_xyz
1 x,y,z
_cell_length_a                   11.6142
_cell_length_b                   14.5823
_cell_length_c                   15.2813
_cell_angle_alpha                92.573
_cell_angle_beta                 110.943
_cell_angle_gamma                98.923
loop_
_atom_site_label
_atom_site_type_symbol
_atom_site_fract_x
_atom_site_fract_y
_atom_site_fract_z
     1  I          0.21913300       0.38702200       0.12912200
     2  I          0.78086700       0.61297800       0.87087800
     3  O          0.30143000       0.18142000       0.15033000
     4  O          0.69857000       0.81858000       0.84967000
     5  O          0.92647000       0.27592000       0.08063000
     6  O          0.07353000       0.72408000       0.91937000
     7  N          0.12793000       0.24892000       0.11743000
     8  N          0.87207000       0.75108000       0.88257000
     9  C          0.19015000       0.17493000       0.13283000
    10  C          0.80985000       0.82507000       0.86717000
    11  C          0.09765000       0.08723000       0.12384000
    12  C          0.90235000       0.91277000       0.87616000
    13  H          0.12000000       0.05820000       0.18360000
    14  H          0.88000000       0.94180000       0.81640000
    15  H          0.09480000       0.04140000       0.07290000
    16  H          0.90520000       0.95860000       0.92710000
    17  C          0.97165000       0.11903000       0.10024000
    18  C          0.02835000       0.88097000       0.89976000
    19  H          0.91130000       0.08800000       0.03830000
    20  H          0.08870000       0.91200000       0.96170000
    21  H          0.93610000       0.10420000       0.14890000
    22  H          0.06390000       0.89580000       0.85110000
    23  C         -0.00015000       0.22393000       0.09763000
    24  C          0.00015000       0.77607000       0.90237000
    25  O          0.33873000       0.54662000       0.15642000
    26  O          0.66127000       0.45338000       0.84358000
    27  N          0.38444000       0.57372000       0.09123000
    28  N          0.61556000       0.42628000       0.90877000
    29  C          0.30704000       0.57183000       0.00173000
    30  C          0.69296000       0.42817000      -0.00173000
    31  H          0.21970000       0.55040000       0.98560000
    32  H          0.78030000       0.44960000       0.01440000
    33  C          0.34985000       0.59973000       0.93206000
    34  C          0.65015000       0.40027000       0.06794000
    35  C          0.47775000       0.63003000       0.95766000
    36  C          0.52225000       0.36997000       0.04234000
    37  H          0.51120000       0.64950000       0.91180000
    38  H          0.48880000       0.35050000       0.08820000
    39  C          0.55545000       0.63143000       0.04954000
    40  C          0.44455000       0.36857000       0.95046000
    41  H          0.64300000       0.65220000       0.06670000
    42  H          0.35700000       0.34780000       0.93330000
    43  C          0.50995000       0.60343000       0.11734000
    44  C          0.49005000       0.39657000       0.88266000
    45  H          0.56470000       0.60480000       0.18090000
    46  H          0.43530000       0.39520000       0.81910000
    47  C          0.25696000       0.59534000       0.83266000
    48  C          0.74304000       0.40466000       0.16734000
    49  H          0.25610000       0.53810000       0.79620000
    50  H          0.74390000       0.46190000       0.20380000
    51  H          0.28100000       0.64980000       0.80350000
    52  H          0.71900000       0.35020000       0.19650000
    53  H          0.17300000       0.59530000       0.83390000
    54  H          0.82700000       0.40470000       0.16610000
    55  I          0.09478300       0.35792200       0.36243200
    56  I          0.90521700       0.64207800       0.63756800
    57  O          0.18983000       0.15683000       0.36163000
    58  O          0.81017000       0.84317000       0.63837000
    59  O          0.82947000       0.23742000       0.36883000
    60  O          0.17053000       0.76258000       0.63117000
    61  N          0.02124000       0.21822000       0.36603000
    62  N          0.97876000       0.78178000       0.63397000
    63  C          0.08555000       0.14613000       0.36573000
    64  C          0.91445000       0.85387000       0.63427000
    65  C          0.00725000       0.05693000       0.37254000
    66  C         -0.00725000       0.94307000       0.62746000
    67  H          0.04620000       0.03310000       0.43390000
    68  H          0.95380000       0.96690000       0.56610000
    69  H         -0.00280000       0.00870000       0.32130000
    70  H          0.00280000      -0.00870000       0.67870000
    71  C          0.88085000       0.08173000       0.36304000
    72  C          0.11915000       0.91827000       0.63696000
    73  H          0.81490000       0.05260000       0.30250000
    74  H          0.18510000       0.94740000       0.69750000
    75  H          0.85580000       0.06090000       0.41540000
    76  H          0.14420000       0.93910000       0.58460000
    77  C          0.90265000       0.18683000       0.36673000
    78  C          0.09735000       0.81317000       0.63327000
    79  O          0.17813000       0.51962000       0.35392000
    80  O          0.82187000       0.48038000       0.64608000
    81  N          0.29333000       0.55532000       0.41463000
    82  N          0.70667000       0.44468000       0.58537000
    83  C          0.31564000       0.56803000       0.50713000
    84  C          0.68436000       0.43197000       0.49287000
    85  H          0.24910000       0.54910000       0.52850000
    86  H          0.75090000       0.45090000       0.47150000
    87  C          0.43304000       0.60783000       0.57223000
    88  C          0.56696000       0.39217000       0.42777000
    89  C          0.52705000       0.63573000       0.53844000
    90  C          0.47295000       0.36427000       0.46156000
    91  H          0.60800000       0.66510000       0.58060000
    92  H          0.39200000       0.33490000       0.41940000
    93  C          0.50295000       0.62073000       0.44304000
    94  C          0.49705000       0.37927000       0.55696000
    95  H          0.56830000       0.63860000       0.42020000
    96  H          0.43170000       0.36140000       0.57980000
    97  C          0.38595000       0.58053000       0.38124000
    98  C          0.61405000       0.41947000       0.61876000
    99  H          0.36970000       0.57020000       0.31570000
   100  H          0.63030000       0.42980000       0.68430000
   101  C          0.45186000       0.61954000       0.67464000
   102  C          0.54814000       0.38046000       0.32536000
   103  H          0.37870000       0.63970000       0.68160000
   104  H          0.62130000       0.36030000       0.31840000
   105  H          0.52700000       0.66660000       0.70840000
   106  H          0.47300000       0.33340000       0.29160000
   107  H          0.46220000       0.55990000       0.70080000
   108  H          0.53780000       0.44010000       0.29920000
   109  I          0.26973300       0.18268200       0.63491200
   110  I          0.73026700       0.81731800       0.36508800
   111  O          0.28323000       0.41272000       0.66133000
   112  O          0.71677000       0.58728000       0.33867000
   113  O          0.96777000       0.15982000       0.58413000
   114  O          0.03223000       0.84018000       0.41587000
   115  N          0.14383000       0.27352000       0.62543000
   116  N          0.85617000       0.72648000       0.37457000
   117  C          0.01744000       0.24123000       0.60033000
   118  C         -0.01744000       0.75877000       0.39967000
   119  C          0.95366000       0.32503000       0.59614000
   120  C          0.04634000       0.67497000       0.40386000
   121  H          0.89130000       0.32590000       0.53200000
   122  H          0.10870000       0.67410000       0.46800000
   123  H          0.91090000       0.32410000       0.64170000
   124  H          0.08910000       0.67590000       0.35830000
   125  C          0.05874000       0.40873000       0.62124000
   126  C          0.94126000       0.59127000       0.37876000
   127  H          0.04500000       0.44820000       0.56870000
   128  H          0.95500000       0.55180000       0.43130000
   129  H          0.06390000       0.44690000       0.67820000
   130  H          0.93610000       0.55310000       0.32180000
   131  C          0.17704000       0.36943000       0.63943000
   132  C          0.82296000       0.63057000       0.36057000
   133  O          0.41193000       0.07302000       0.64512000
   134  O          0.58807000       0.92698000       0.35488000
   135  N          0.49484000       0.09532000       0.60393000
   136  N          0.50516000       0.90468000       0.39607000
   137  C          0.61765000       0.10193000       0.65484000
   138  C          0.38235000       0.89807000       0.34516000
   139  H          0.64470000       0.09330000       0.71980000
   140  H          0.35530000       0.90670000       0.28020000
   141  C          0.70375000       0.12134000       0.61264000
   142  C          0.29625000       0.87866000       0.38736000
   143  H          0.79050000       0.12550000       0.64830000
   144  H          0.20950000       0.87450000       0.35170000
   145  C          0.66445000       0.13453000       0.51924000
   146  C          0.33555000       0.86547000       0.48076000
   147  H          0.72420000       0.14870000       0.49040000
   148  H          0.27580000       0.85130000       0.50960000
   149  C          0.53925000       0.12743000       0.46703000
   150  C          0.46075000       0.87257000       0.53297000
   151  C          0.45394000       0.10773000       0.51203000
   152  C          0.54606000       0.89227000       0.48797000
   153  H          0.36660000       0.10320000       0.47750000
   154  H          0.63340000       0.89680000       0.52250000
   155  C          0.49016000       0.13844000       0.36314000
   156  C          0.50984000       0.86156000       0.63686000
   157  H          0.54620000       0.18890000       0.35020000
   158  H          0.45380000       0.81110000       0.64980000
   159  H          0.40590000       0.15360000       0.34450000
   160  H          0.59410000       0.84640000       0.65550000
   161  H          0.48640000       0.08000000       0.32710000
   162  H          0.51360000       0.92000000       0.67290000
   163  I          0.12654300       0.14744200       0.86051200
   164  I          0.87345700       0.85255800       0.13948800
   165  O          0.13873000       0.37552000       0.84893000
   166  O          0.86127000       0.62448000       0.15107000
   167  O          0.83877000       0.13952000       0.85903000
   168  O          0.16123000       0.86048000       0.14097000
   169  N          0.00743000       0.24362000       0.85593000
   170  N         -0.00743000       0.75638000       0.14407000
   171  C          0.88816000       0.21863000       0.85703000
   172  C          0.11184000       0.78137000       0.14297000
   173  C          0.83185000       0.30524000       0.85394000
   174  C          0.16815000       0.69476000       0.14606000
   175  H          0.80630000       0.31380000       0.90850000
   176  H          0.19370000       0.68620000       0.09150000
   177  H          0.75750000       0.30140000       0.79510000
   178  H          0.24250000       0.69860000       0.20490000
   179  C          0.93395000       0.38473000       0.85724000
   180  C          0.06605000       0.61527000       0.14276000
   181  H          0.96090000       0.42720000       0.91610000
   182  H          0.03910000       0.57280000       0.08390000
   183  H          0.90450000       0.42090000       0.80270000
   184  H          0.09550000       0.57910000       0.19730000
   185  C          0.04034000       0.33873000       0.85353000
   186  C          0.95966000       0.66127000       0.14647000
   187  O          0.26233000       0.03692000       0.86662000
   188  O          0.73767000       0.96308000       0.13338000
   189  N          0.38243000       0.07642000       0.91483000
   190  N          0.61757000       0.92358000       0.08517000
   191  C          0.46105000       0.09363000       0.86733000
   192  C          0.53895000       0.90637000       0.13267000
   193  H          0.43140000       0.07890000       0.80090000
   194  H          0.56860000       0.92110000       0.19910000
   195  C          0.58405000       0.13263000       0.91754000
   196  C          0.41595000       0.86737000       0.08246000
   197  H          0.64000000       0.14540000       0.88510000
   198  H          0.36000000       0.85460000       0.11490000
   199  C          0.62774000       0.15343000       0.01334000
   200  C          0.37226000       0.84657000       0.98666000
   201  H          0.71310000       0.18080000       0.04700000
   202  H          0.28690000       0.81920000       0.95300000
   203  C          0.54664000       0.13453000       0.06103000
   204  C          0.45336000       0.86547000       0.93897000
   205  C          0.42264000       0.09563000       0.00853000
   206  C          0.57736000       0.90437000      -0.00853000
   207  H          0.36510000       0.08240000       0.03950000
   208  H          0.63490000       0.91760000       0.96050000
   209  C          0.58785000       0.15324000       0.16613000
   210  C          0.41215000       0.84676000       0.83387000
   211  H          0.58250000       0.09380000       0.19330000
   212  H          0.41750000       0.90620000       0.80670000
   213  H          0.53330000       0.19080000       0.18140000
   214  H          0.46670000       0.80920000       0.81860000
   215  H          0.67460000       0.18710000       0.19210000
   216  H          0.32540000       0.81290000       0.80790000
