data_TPHCUR
_symmetry_space_group_name_H-M    'P1'
_symmetry_Int_Tables_number       1
loop_
_symmetry_equiv_pos_site_id
_symmetry_equiv_pos_as_xyz
1 x,y,z
_cell_length_a                   5.01872
_cell_length_b                   9.92193
_cell_length_c                   11.94175
_cell_angle_alpha                71.1086
_cell_angle_beta                 85.5297
_cell_angle_gamma                81.22213
loop_
_atom_site_label
_atom_site_type_symbol
_atom_site_fract_x
_atom_site_fract_y
_atom_site_fract_z
     1  C          0.64140000       0.59380000       0.22680000
     2  C          0.35860000       0.40620000       0.77320000
     3  C          0.24740000       0.51310000       0.35490000
     4  C          0.75260000       0.48690000       0.64510000
     5  H          0.75500000       0.75300000       0.24300000
     6  H          0.24500000       0.24700000       0.75700000
     7  H          0.44700000       0.44000000       0.24000000
     8  H          0.55300000       0.56000000       0.76000000
     9  H          0.11400000       0.62700000       0.44800000
    10  H          0.88600000       0.37300000       0.55200000
    11  N          0.62860000       0.70840000       0.26650000
    12  N          0.37140000       0.29160000       0.73350000
    13  N          0.43810000       0.50920000       0.26640000
    14  N          0.56190000       0.49080000       0.73360000
    15  N          0.22370000       0.62830000       0.39420000
    16  N          0.77630000       0.37170000       0.60580000
    17  O          0.82210000       0.56370000       0.16060000
    18  O          0.17790000       0.43630000       0.83940000
    19  O          0.10870000       0.41550000       0.39550000
    20  O          0.89130000       0.58450000       0.60450000
    21  P          0.35055000       0.78385000       0.32492000
    22  P          0.64945000       0.21615000       0.67508000
    23  S          0.44417000       0.86886000       0.44014000
    24  S          0.55583000       0.13114000       0.55986000
    25  S          0.11582000       0.91038000       0.19532000
    26  S          0.88418000       0.08962000       0.80468000
    27  C          0.60710000       0.25800000       0.09280000
    28  C          0.39290000       0.74200000       0.90720000
    29  H          0.86800000       0.33400000       0.98400000
    30  H          0.13200000       0.66600000       0.01600000
    31  H          0.81800000       0.40800000       0.07600000
    32  H          0.18200000       0.59200000       0.92400000
    33  H          0.63400000       0.15000000      -0.00800000
    34  H          0.36600000       0.85000000       0.00800000
    35  H          0.43400000       0.10400000       0.08300000
    36  H          0.56600000       0.89600000       0.91700000
    37  N          0.79120000       0.34290000       0.03970000
    38  N          0.20880000       0.65710000       0.96030000
    39  N          0.55500000       0.16090000       0.04600000
    40  N          0.44500000       0.83910000       0.95400000
    41  O          0.49120000       0.26780000       0.18640000
    42  O          0.50880000       0.73220000       0.81360000
    43  H          0.06200000       0.25700000       0.36400000
    44  H          0.93800000       0.74300000       0.63600000
    45  H          0.08500000       0.09400000       0.36700000
    46  H          0.91500000       0.90600000       0.63300000
    47  H          0.86500000       0.20600000       0.29800000
    48  H          0.13500000       0.79400000       0.70200000
    49  H          0.13100000       0.20400000       0.26400000
    50  H          0.86900000       0.79600000       0.73600000
    51  N          0.02830000       0.17720000       0.32390000
    52  N          0.97170000       0.82280000       0.67610000
