data_TPOXLC
_symmetry_space_group_name_H-M    'P1'
_symmetry_Int_Tables_number       1
loop_
_symmetry_equiv_pos_site_id
_symmetry_equiv_pos_as_xyz
1 x,y,z
_cell_length_a                   9.0742
_cell_length_b                   10.3543
_cell_length_c                   17.9798
_cell_angle_alpha                90.0
_cell_angle_beta                 75.201
_cell_angle_gamma                90.0
loop_
_atom_site_label
_atom_site_type_symbol
_atom_site_fract_x
_atom_site_fract_y
_atom_site_fract_z
     1  P          0.41290000       0.21330000       0.80390000
     2  P          0.58710000       0.71330000       0.69610000
     3  P          0.58710000       0.78670000       0.19610000
     4  P          0.41290000       0.28670000       0.30390000
     5  O          0.33360000       0.33610000       0.83470000
     6  O          0.66640000       0.83610000       0.66530000
     7  O          0.66640000       0.66390000       0.16530000
     8  O          0.33360000       0.16390000       0.33470000
     9  C          0.31960000       0.07480000       0.85530000
    10  C          0.68040000       0.57480000       0.64470000
    11  C          0.68040000       0.92520000       0.14470000
    12  C          0.31960000       0.42520000       0.35530000
    13  C          0.23140000      -0.00970000       0.82430000
    14  C          0.76860000       0.49030000       0.67570000
    15  C          0.76860000       0.00970000       0.17570000
    16  C          0.23140000       0.50970000       0.32430000
    17  C          0.15040000       0.89110000       0.86930000
    18  C          0.84960000       0.39110000       0.63070000
    19  C          0.84960000       0.10890000       0.13070000
    20  C          0.15040000       0.60890000       0.36930000
    21  C          0.15770000       0.87640000       0.94530000
    22  C          0.84230000       0.37640000       0.55470000
    23  C          0.84230000       0.12360000       0.05470000
    24  C          0.15770000       0.62360000       0.44530000
    25  C          0.24600000       0.96090000       0.97650000
    26  C          0.75400000       0.46090000       0.52350000
    27  C          0.75400000       0.03910000       0.02350000
    28  C          0.24600000       0.53910000       0.47650000
    29  C          0.32690000       0.06010000       0.93140000
    30  C          0.67310000       0.56010000       0.56860000
    31  C          0.67310000       0.93990000       0.06860000
    32  C          0.32690000       0.43990000       0.43140000
    33  C          0.41800000       0.19570000       0.70380000
    34  C          0.58200000       0.69570000       0.79620000
    35  C          0.58200000       0.80430000       0.29620000
    36  C          0.41800000       0.30430000       0.20380000
    37  C          0.54660000       0.15360000       0.64860000
    38  C          0.45340000       0.65360000       0.85140000
    39  C          0.45340000       0.84640000       0.35140000
    40  C          0.54660000       0.34640000       0.14860000
    41  C          0.54040000       0.13780000       0.57240000
    42  C          0.45960000       0.63780000       0.92760000
    43  C          0.45960000       0.86220000       0.42760000
    44  C          0.54040000       0.36220000       0.07240000
    45  C          0.40570000       0.16400000       0.55140000
    46  C          0.59430000       0.66400000       0.94860000
    47  C          0.59430000       0.83600000       0.44860000
    48  C          0.40570000       0.33600000       0.05140000
    49  C          0.27710000       0.20610000       0.60670000
    50  C          0.72290000       0.70610000       0.89330000
    51  C          0.72290000       0.79390000       0.39330000
    52  C          0.27710000       0.29390000       0.10670000
    53  C          0.28320000       0.22190000       0.68290000
    54  C          0.71680000       0.72190000       0.81710000
    55  C          0.71680000       0.77810000       0.31710000
    56  C          0.28320000       0.27810000       0.18290000
    57  C          0.60360000       0.20940000       0.81510000
    58  C          0.39640000       0.70940000       0.68490000
    59  C          0.39640000       0.79060000       0.18490000
    60  C          0.60360000       0.29060000       0.31510000
    61  C          0.69620000       0.10040000       0.79690000
    62  C          0.30380000       0.60040000       0.70310000
    63  C          0.30380000       0.89960000       0.20310000
    64  C          0.69620000       0.39960000       0.29690000
    65  C          0.84290000       0.10130000       0.80800000
    66  C          0.15710000       0.60130000       0.69200000
    67  C          0.15710000       0.89870000       0.19200000
    68  C          0.84290000       0.39870000       0.30800000
    69  C          0.89690000       0.21130000       0.83730000
    70  C          0.10310000       0.71130000       0.66270000
    71  C          0.10310000       0.78870000       0.16270000
    72  C          0.89690000       0.28870000       0.33730000
    73  C          0.80430000       0.32030000       0.85550000
    74  C          0.19570000       0.82030000       0.64450000
    75  C          0.19570000       0.67970000       0.14450000
    76  C          0.80430000       0.17970000       0.35550000
    77  C          0.65770000       0.31930000       0.84440000
    78  C          0.34230000       0.81930000       0.65560000
    79  C          0.34230000       0.68070000       0.15560000
    80  C          0.65770000       0.18070000       0.34440000
    81  H          0.22540000       0.00180000       0.76540000
    82  H          0.77460000       0.50180000       0.73460000
    83  H          0.77460000      -0.00180000       0.23460000
    84  H          0.22540000       0.49820000       0.26540000
    85  H          0.08170000       0.82600000       0.84550000
    86  H          0.91830000       0.32600000       0.65450000
    87  H          0.91830000       0.17400000       0.15450000
    88  H          0.08170000       0.67400000       0.34550000
    89  H          0.09550000       0.79960000       0.98040000
    90  H          0.90450000       0.29960000       0.51960000
    91  H          0.90450000       0.20040000       0.01960000
    92  H          0.09550000       0.70040000       0.48040000
    93  H          0.25290000       0.94910000       0.03520000
    94  H          0.74710000       0.44910000       0.46480000
    95  H          0.74710000       0.05090000       0.96480000
    96  H          0.25290000       0.55090000       0.53520000
    97  H          0.39650000       0.12500000       0.95510000
    98  H          0.60350000       0.62500000       0.54490000
    99  H          0.60350000       0.87500000       0.04490000
   100  H          0.39650000       0.37500000       0.45510000
   101  H          0.65100000       0.13340000       0.66470000
   102  H          0.34900000       0.63340000       0.83530000
   103  H          0.34900000       0.86660000       0.33530000
   104  H          0.65100000       0.36660000       0.16470000
   105  H          0.64020000       0.10650000       0.52950000
   106  H          0.35980000       0.60650000       0.97050000
   107  H          0.35980000       0.89350000       0.47050000
   108  H          0.64020000       0.39350000       0.02950000
   109  H          0.40090000       0.15280000       0.49240000
   110  H          0.59910000       0.65280000       0.00760000
   111  H          0.59910000       0.84720000       0.50760000
   112  H          0.40090000       0.34720000      -0.00760000
   113  H          0.17240000       0.22600000       0.59070000
   114  H          0.82760000       0.72600000       0.90930000
   115  H          0.82760000       0.77400000       0.40930000
   116  H          0.17240000       0.27400000       0.09070000
   117  H          0.18310000       0.25290000       0.72600000
   118  H          0.81690000       0.75290000       0.77400000
   119  H          0.81690000       0.74710000       0.27400000
   120  H          0.18310000       0.24710000       0.22600000
   121  H          0.65450000       0.01530000       0.77410000
   122  H          0.34550000       0.51530000       0.72590000
   123  H          0.34550000       0.98470000       0.22590000
   124  H          0.65450000       0.48470000       0.27410000
   125  H          0.91420000       0.01670000       0.79440000
   126  H          0.08580000       0.51670000       0.70560000
   127  H          0.08580000       0.98330000       0.20560000
   128  H          0.91420000       0.48330000       0.29440000
   129  H          0.00980000       0.21170000       0.84660000
   130  H         -0.00980000       0.71170000       0.65340000
   131  H         -0.00980000       0.78830000       0.15340000
   132  H          0.00980000       0.28830000       0.34660000
   133  H          0.84580000       0.40530000       0.87850000
   134  H          0.15420000       0.90530000       0.62150000
   135  H          0.15420000       0.59470000       0.12150000
   136  H          0.84580000       0.09470000       0.37850000
   137  H          0.58610000       0.40390000       0.85820000
   138  H          0.41390000       0.90390000       0.64180000
   139  H          0.41390000       0.59610000       0.14180000
   140  H          0.58610000       0.09610000       0.35820000
   141  O          0.12490000       0.37950000       0.95710000
   142  O          0.87510000       0.87950000       0.54290000
   143  O          0.87510000       0.62050000       0.04290000
   144  O          0.12490000       0.12050000       0.45710000
   145  O          0.07230000       0.56690000       0.90920000
   146  O          0.92770000       0.06690000       0.59080000
   147  O          0.92770000       0.43310000       0.09080000
   148  O          0.07230000       0.93310000       0.40920000
   149  C          0.05680000       0.48900000       0.96070000
   150  C          0.94320000      -0.01100000       0.53930000
   151  C          0.94320000       0.51100000       0.03930000
   152  C          0.05680000       0.01100000       0.46070000
