data_TUCVIW
_symmetry_space_group_name_H-M    'P1'
_symmetry_Int_Tables_number       1
loop_
_symmetry_equiv_pos_site_id
_symmetry_equiv_pos_as_xyz
1 x,y,z
_cell_length_a                   9.4622
_cell_length_b                   11.1303
_cell_length_c                   30.2286
_cell_angle_alpha                90.0
_cell_angle_beta                 90.0
_cell_angle_gamma                90.0
loop_
_atom_site_label
_atom_site_type_symbol
_atom_site_fract_x
_atom_site_fract_y
_atom_site_fract_z
     1  I          0.14742600       0.51387600       0.04076200
     2  I          0.35257400       0.48612400       0.54076200
     3  I          0.85257400       0.01387600       0.45923800
     4  I          0.64742600       0.98612400       0.95923800
     5  I          0.56639600       0.51486600       0.03488300
     6  I          0.93360400       0.48513400       0.53488300
     7  I          0.43360400       0.01486600       0.46511700
     8  I          0.06639600       0.98513400       0.96511700
     9  P          0.36113000       0.42172000       0.06843900
    10  P          0.13887000       0.57828000       0.56843900
    11  P          0.63887000       0.92172000       0.43156100
    12  P          0.86113000       0.07828000       0.93156100
    13  C          0.38081100       0.45301000       0.12794000
    14  C          0.11918900       0.54699000       0.62794000
    15  C          0.61918900       0.95301000       0.37206000
    16  C          0.88081100       0.04699000       0.87206000
    17  H          0.47931100       0.42951000       0.13624000
    18  H          0.02068900       0.57049000       0.63624000
    19  H          0.52068900       0.92951000       0.36376000
    20  H          0.97931100       0.07049000       0.86376000
    21  C          0.28051200       0.38221500       0.15795000
    22  C          0.21948800       0.61778500       0.65795000
    23  C          0.71948800       0.88221500       0.34205000
    24  C          0.78051200       0.11778500       0.84205000
    25  H          0.30745800       0.29721900       0.15772200
    26  H          0.19254200       0.70278100       0.65772200
    27  H          0.69254200       0.79721900       0.34227800
    28  H          0.80745800       0.20278100       0.84227800
    29  H          0.18341700       0.39066500       0.14701700
    30  H          0.31658300       0.60933500       0.64701700
    31  H          0.81658300       0.89066500       0.35298300
    32  H          0.68341700       0.10933500       0.85298300
    33  H          0.28656800       0.41365200       0.18818000
    34  H          0.21343200       0.58634800       0.68818000
    35  H          0.71343200       0.91365200       0.31182000
    36  H          0.78656800       0.08634800       0.81182000
    37  C          0.36731400       0.58831200       0.13655000
    38  C          0.13268600       0.41168800       0.63655000
    39  C          0.63268600       0.08831200       0.36345000
    40  C          0.86731400       0.91168800       0.86345000
    41  H          0.43026900       0.63221300       0.11651900
    42  H          0.06973100       0.36778700       0.61651900
    43  H          0.56973100       0.13221300       0.38348100
    44  H          0.93026900       0.86778700       0.88348100
    45  H          0.39358600       0.60561600       0.16729000
    46  H          0.10641400       0.39438400       0.66729000
    47  H          0.60641400       0.10561600       0.33271000
    48  H          0.89358600       0.89438400       0.83271000
    49  H          0.26942600       0.61351900       0.13142800
    50  H          0.23057400       0.38648100       0.63142800
    51  H          0.73057400       0.11351900       0.36857200
    52  H          0.76942600       0.88648100       0.86857200
    53  C          0.35501100       0.26088000       0.05194000
    54  C          0.14498900       0.73912000       0.55194000
    55  C          0.64498900       0.76088000       0.44806000
    56  C          0.85501100       0.23912000       0.94806000
    57  C          0.22231100       0.20141200       0.07015000
    58  C          0.27768900       0.79858800       0.57015000
    59  C          0.77768900       0.70141200       0.42985000
    60  C          0.72231100       0.29858800       0.92985000
    61  H          0.22004600       0.21046600       0.10236000
    62  H          0.27995400       0.78953400       0.60236000
    63  H          0.77995400       0.71046600       0.39764000
    64  H          0.72004600       0.28953400       0.89764000
    65  H          0.22284600       0.11582100       0.06252500
    66  H          0.27715400       0.88417900       0.56252500
    67  H          0.77715400       0.61582100       0.43747500
    68  H          0.72284600       0.38417900       0.93747500
    69  H          0.13871100       0.23985300       0.05722200
    70  H          0.36128900       0.76014700       0.55722200
    71  H          0.86128900       0.73985300       0.44277800
    72  H          0.63871100       0.26014700       0.94277800
    73  C          0.35791300       0.25331100       0.00234000
    74  C          0.14208700       0.74668900       0.50234000
    75  C          0.64208700       0.75331100       0.49766000
    76  C          0.85791300       0.24668900      -0.00234000
    77  H          0.44104900       0.29616100       0.99106000
    78  H          0.05895100       0.70383900       0.49106000
    79  H          0.55895100       0.79616100       0.50894000
    80  H          0.94104900       0.20383900       0.00894000
    81  H          0.27214300       0.29006500       0.99016000
    82  H          0.22785700       0.70993500       0.49016000
    83  H          0.72785700       0.79006500       0.50984000
    84  H          0.77214300       0.20993500       0.00984000
    85  H          0.36278200       0.16881100       0.99326000
    86  H          0.13721800       0.83118900       0.49326000
    87  H          0.63721800       0.66881100       0.50674000
    88  H          0.86278200       0.33118900       0.00674000
    89  C          0.48751200       0.19881100       0.07255000
    90  C          0.01248800       0.80118900       0.57255000
    91  C          0.51248800       0.69881100       0.42745000
    92  C         -0.01248800       0.30118900       0.92745000
    93  H          0.48694700       0.21026300       0.10466000
    94  H          0.01305300       0.78973700       0.60466000
    95  H          0.51305300       0.71026300       0.39534000
    96  H         -0.01305300       0.28973700       0.89534000
    97  H          0.57331200       0.23465200       0.06002100
    98  H          0.92668800       0.76534800       0.56002100
    99  H          0.42668800       0.73465200       0.43997900
   100  H          0.07331200       0.26534800       0.93997900
   101  H          0.48544600       0.11271700       0.06572300
   102  H          0.01455400       0.88728300       0.56572300
   103  H          0.51455400       0.61271700       0.43427700
   104  H         -0.01455400       0.38728300       0.93427700
   105  I          0.85894300       0.63556600       0.98890700
   106  I          0.64105700       0.36443400       0.48890700
   107  I          0.14105700       0.13556600       0.51109300
   108  I          0.35894300       0.86443400       0.01109300
   109  I          0.87321200       0.61651600       0.14600300
   110  I          0.62678800       0.38348400       0.64600300
   111  I          0.12678800       0.11651600       0.35399700
   112  I          0.37321200       0.88348400       0.85399700
   113  I          0.11232700       0.85575600       0.09152300
   114  I          0.38767300       0.14424400       0.59152300
   115  I          0.88767300       0.35575600       0.40847700
   116  I          0.61232700       0.64424400       0.90847700
   117  P          0.92437000       0.82882000       0.14517100
   118  P          0.57563000       0.17118000       0.64517100
   119  P          0.07563000       0.32882000       0.35482900
   120  P          0.42437000       0.67118000       0.85482900
   121  C          0.76318900       0.91291200       0.12704000
   122  C          0.73681100       0.08708800       0.62704000
   123  C          0.23681100       0.41291200       0.37296000
   124  C          0.26318900       0.58708800       0.87296000
   125  H          0.77198900      -0.00338800       0.13874000
   126  H          0.72801100       0.00338800       0.63874000
   127  H          0.22801100       0.49661200       0.36126000
   128  H          0.27198900       0.50338800       0.86126000
   129  C          0.62998800       0.85951400       0.14686000
   130  C          0.87001200       0.14048600       0.64686000
   131  C          0.37001200       0.35951400       0.35314000
   132  C          0.12998800       0.64048600       0.85314000
   133  H          0.55097400       0.91524300       0.14253000
   134  H          0.94902600       0.08475700       0.64253000
   135  H          0.44902600       0.41524300       0.35747000
   136  H          0.05097400       0.58475700       0.85747000
   137  H          0.64406100       0.84588400       0.17858000
   138  H          0.85593900       0.15411600       0.67858000
   139  H          0.35593900       0.34588400       0.32142000
   140  H          0.14406100       0.65411600       0.82142000
   141  H          0.60874000       0.78304700       0.13222300
   142  H          0.89126000       0.21695300       0.63222300
   143  H          0.39126000       0.28304700       0.36777700
   144  H          0.10874000       0.71695300       0.86777700
   145  C          0.75488300       0.92192200       0.07716000
   146  C          0.74511700       0.07807800       0.57716000
   147  C          0.24511700       0.42192200       0.42284000
   148  C          0.25488300       0.57807800       0.92284000
   149  H          0.83723100       0.96599100       0.06607000
   150  H          0.66276900       0.03400900       0.56607000
   151  H          0.16276900       0.46599100       0.43393000
   152  H          0.33723100       0.53400900       0.93393000
   153  H          0.66833300       0.96459900       0.06876000
   154  H          0.83166700       0.03540100       0.56876000
   155  H          0.33166700       0.46459900       0.43124000
   156  H          0.16833300       0.53540100       0.93124000
   157  H          0.75388000       0.84102200       0.06436000
   158  H          0.74612000       0.15897800       0.56436000
   159  H          0.24612000       0.34102200       0.43564000
   160  H          0.25388000       0.65897800       0.93564000
   161  C         -0.01151100       0.87711100       0.19994000
   162  C          0.51151100       0.12288900       0.69994000
   163  C          0.01151100       0.37711100       0.30006000
   164  C          0.48848900       0.62288900       0.80006000
   165  C          0.11651400       0.80181300       0.21265000
   166  C          0.38348600       0.19818700       0.71265000
   167  C          0.88348600       0.30181300       0.28735000
   168  C          0.61651400       0.69818700       0.78735000
   169  H          0.08942700       0.71691500       0.21403000
   170  H          0.41057300       0.28308500       0.71403000
   171  H          0.91057300       0.21691500       0.28597000
   172  H          0.58942700       0.78308500       0.78597000
   173  H          0.15166000       0.82755600       0.24161400
   174  H          0.34834000       0.17244400       0.74161400
   175  H          0.84834000       0.32755600       0.25838600
   176  H          0.65166000       0.67244400       0.75838600
   177  H          0.19103800       0.81236500       0.19041600
   178  H          0.30896200       0.18763500       0.69041600
   179  H          0.80896200       0.31236500       0.30958400
   180  H          0.69103800       0.68763500       0.80958400
   181  C          0.03011300       0.00831100       0.19695000
   182  C          0.46988700      -0.00831100       0.69695000
   183  C          0.96988700       0.50831100       0.30305000
   184  C          0.53011300       0.49168900       0.80305000
   185  H          0.94976800       0.05521600       0.18582700
   186  H          0.55023200       0.94478400       0.68582700
   187  H          0.05023200       0.55521600       0.31417300
   188  H          0.44976800       0.44478400       0.81417300
   189  H          0.11016000       0.01691500       0.17652200
   190  H          0.38984000       0.98308500       0.67652200
   191  H          0.88984000       0.51691500       0.32347800
   192  H          0.61016000       0.48308500       0.82347800
   193  H          0.05728600       0.03762300       0.22627000
   194  H          0.44271400       0.96237700       0.72627000
   195  H          0.94271400       0.53762300       0.27373000
   196  H          0.55728600       0.46237700       0.77373000
   197  C          0.87088300       0.85801500       0.23405000
   198  C          0.62911700       0.14198500       0.73405000
   199  C          0.12911700       0.35801500       0.26595000
   200  C          0.37088300       0.64198500       0.76595000
   201  H          0.83872600       0.77432800       0.23292300
   202  H          0.66127400       0.22567200       0.73292300
   203  H          0.16127400       0.27432800       0.26707700
   204  H          0.33872600       0.72567200       0.76707700
   205  H          0.79155200       0.91166700       0.22742000
   206  H          0.70844800       0.08833300       0.72742000
   207  H          0.20844800       0.41166700       0.27258000
   208  H          0.29155200       0.58833300       0.77258000
   209  H          0.90716500       0.87588700       0.26376000
   210  H          0.59283500       0.12411300       0.76376000
   211  H          0.09283500       0.37588700       0.23624000
   212  H          0.40716500       0.62411300       0.73624000
   213  I          0.61860200       0.18470700       0.19929300
   214  I          0.88139800       0.81529300       0.69929300
   215  I          0.38139800       0.68470700       0.30070700
   216  I          0.11860200       0.31529300       0.80070700
   217  I          0.83283100       0.30855800       0.14111400
   218  I          0.66716900       0.69144200       0.64111400
   219  I          0.16716900       0.80855800       0.35888600
   220  I          0.33283100       0.19144200       0.85888600
   221  I          0.42048100       0.05238130       0.25011400
   222  I          0.07951900       0.94761870       0.75011400
   223  I          0.57951900       0.55238130       0.24988600
   224  I          0.92048100       0.44761870       0.74988600
