data_TUGYIE
_symmetry_space_group_name_H-M    'P1'
_symmetry_Int_Tables_number       1
loop_
_symmetry_equiv_pos_site_id
_symmetry_equiv_pos_as_xyz
1 x,y,z
_cell_length_a                   6.07222
_cell_length_b                   7.47993
_cell_length_c                   20.15466
_cell_angle_alpha                88.5572
_cell_angle_beta                 87.2172
_cell_angle_gamma                86.3762
loop_
_atom_site_label
_atom_site_type_symbol
_atom_site_fract_x
_atom_site_fract_y
_atom_site_fract_z
     1  F          0.91706810       0.51864170       0.29628600
     2  F          0.08293190       0.48135830       0.70371400
     3  F          0.91098000       0.44355190       0.42705600
     4  F          0.08902000       0.55644810       0.57294400
     5  F          0.26393000       0.26392000       0.48150600
     6  F          0.73607000       0.73608000       0.51849400
     7  F          0.62282000       0.15947180       0.40407600
     8  F          0.37718000       0.84052820       0.59592400
     9  F          0.63190180       0.22802170       0.27334600
    10  F          0.36809820       0.77197830       0.72665400
    11  O          0.12333000       0.41532000       0.17319700
    12  O          0.87667000       0.58468000       0.82680300
    13  O          0.47512000       0.48072000       0.18705600
    14  O          0.52488000       0.51928000       0.81294400
    15  C          0.27603000       0.37762000       0.28030900
    16  C          0.72397000       0.62238000       0.71969100
    17  C          0.09263000       0.42773000       0.32109100
    18  C          0.90737000       0.57227000       0.67890900
    19  C          0.08773000       0.39033000       0.38848100
    20  C          0.91227000       0.60967000       0.61151900
    21  C          0.26694000       0.30073000       0.41593100
    22  C          0.73306000       0.69927000       0.58406900
    23  C          0.44963000       0.24853000       0.37699100
    24  C          0.55037000       0.75147000       0.62300900
    25  C          0.45273000       0.28753000       0.30968100
    26  C          0.54727000       0.71247000       0.69031900
    27  C          0.27733000       0.42503000       0.20750100
    28  C          0.72267000       0.57497000       0.79249900
    29  C          0.50234000       0.52423000       0.11610110
    30  C          0.49766000       0.47577000       0.88389890
    31  C          0.50653000       0.36253000       0.07728100
    32  C          0.49347000       0.63747000       0.92271900
    33  C          0.50443000       0.22643000       0.04728900
    34  C          0.49557000       0.77357000       0.95271100
    35  C          0.50123000       0.06953000       0.01417900
    36  C          0.49877000       0.93047000       0.98582100
    37  H          0.64940000       0.58940000       0.11201200
    38  H          0.35060000       0.41060000       0.88798800
    39  H          0.37550000       0.61040000       0.10451300
    40  H          0.62450000       0.38960000       0.89548700
    41  O          0.00982000       0.96582000       0.19403700
    42  O         -0.00982000       0.03418000       0.80596300
    43  O          0.37322000       0.92512000       0.16839700
    44  O          0.62678000       0.07488000       0.83160300
    45  C          0.24153000       0.88482000       0.28111900
    46  C          0.75847000       0.11518000       0.71888100
    47  C          0.06533000       0.91713000       0.32700100
    48  C          0.93467000       0.08287000       0.67299900
    49  C          0.09334000       0.87753000       0.39363100
    50  C          0.90666000       0.12247000       0.60636900
    51  C          0.29394000       0.80253000       0.41453110
    52  C          0.70606000       0.19747000       0.58546890
    53  C          0.46874000       0.76963000       0.36907110
    54  C          0.53126000       0.23037000       0.63092890
    55  C          0.44253000       0.81083000       0.30240100
    56  C          0.55747000       0.18917000       0.69759900
    57  C          0.22203000       0.92633000       0.20910900
    58  C          0.77797000       0.07367000       0.79089100
    59  C          0.97366000       0.01243000       0.12477110
    60  C          0.02634000      -0.01243000       0.87522890
    61  C         -0.01323000       0.85333000       0.08410100
    62  C          0.01323000       0.14667000       0.91589900
    63  C         -0.00103000       0.56803000       0.01532100
    64  C          0.00103000       0.43197000       0.98467900
    65  C         -0.00673000       0.72183000       0.05111100
    66  C          0.00673000       0.27817000       0.94888900
    67  H          0.92460000       0.97130000       0.31381100
    68  H          0.07540000       0.02870000       0.68618900
    69  H          0.81860000       0.06830000       0.12621100
    70  H          0.18140000       0.93170000       0.87378900
    71  H          0.08840000       0.10640000       0.10801200
    72  H          0.91160000       0.89360000       0.89198800
    73  H          0.97760000       0.91030000       0.42451300
    74  H          0.02240000       0.08970000       0.57548700
    75  H          0.55640000       0.78930000       0.27271200
    76  H          0.44360000       0.21070000       0.72728800
    77  H          0.60940000       0.72130000       0.38351200
    78  H          0.39060000       0.27870000       0.61648800
    79  H          0.31740000       0.77640000       0.45941400
    80  H          0.68260000       0.22360000       0.54058600
