data_TUJXEB
_symmetry_space_group_name_H-M    'P1'
_symmetry_Int_Tables_number       1
loop_
_symmetry_equiv_pos_site_id
_symmetry_equiv_pos_as_xyz
1 x,y,z
_cell_length_a                   10.1852
_cell_length_b                   18.9311
_cell_length_c                   12.8521
_cell_angle_alpha                90.0
_cell_angle_beta                 113.1118
_cell_angle_gamma                90.0
loop_
_atom_site_label
_atom_site_type_symbol
_atom_site_fract_x
_atom_site_fract_y
_atom_site_fract_z
     1  C          0.64704000       0.25000000       0.56033000
     2  C          0.35296000       0.75000000       0.43967000
     3  C          0.58245000       0.25000000       0.65304000
     4  C          0.41755000       0.75000000       0.34696000
     5  C          0.62563000       0.18792000       0.73613000
     6  C          0.37437000       0.68792000       0.26387000
     7  C          0.37437000       0.81208000       0.26387000
     8  C          0.62563000       0.31208000       0.73613000
     9  C          0.69753000       0.12992000       0.72253000
    10  C          0.30247000       0.62992000       0.27747000
    11  C          0.30247000       0.87008000       0.27747000
    12  C          0.69753000       0.37008000       0.72253000
    13  C          0.76133000       0.13072000       0.63893000
    14  C          0.23867000       0.63072000       0.36107000
    15  C          0.23867000       0.86928000       0.36107000
    16  C          0.76133000       0.36928000       0.63893000
    17  C          0.74883000       0.18852000       0.57152000
    18  C          0.25117000       0.68852000       0.42848000
    19  C          0.25117000       0.81148000       0.42848000
    20  C          0.74883000       0.31148000       0.57152000
    21  C          0.86993000       0.21172000       0.55252000
    22  C          0.13007000       0.71172000       0.44748000
    23  C          0.13007000       0.78828000       0.44748000
    24  C          0.86993000       0.28828000       0.55252000
    25  C          0.89524000       0.09272000       0.68573000
    26  C          0.10476000       0.59272000       0.31427000
    27  C          0.10476000       0.90728000       0.31427000
    28  C          0.89524000       0.40728000       0.68573000
    29  C          0.91344000       0.06912000       0.79813000
    30  C          0.08656000       0.56912000       0.20187000
    31  C          0.08656000       0.93088000       0.20187000
    32  C          0.91344000       0.43088000       0.79813000
    33  C          0.79434000       0.09212000       0.82083000
    34  C          0.20566000       0.59212000       0.17917000
    35  C          0.20566000       0.90788000       0.17917000
    36  C          0.79434000       0.40788000       0.82083000
    37  C          0.64863000       0.21202000       0.84793000
    38  C          0.35137000       0.71202000       0.15207000
    39  C          0.35137000       0.78798000       0.15207000
    40  C          0.64863000       0.28798000       0.84793000
    41  C          0.73884000       0.17443000       0.94323000
    42  C          0.26116000       0.67443000       0.05677000
    43  C          0.26116000       0.82557000       0.05677000
    44  C          0.73884000       0.32557000       0.94323000
    45  C          0.81234000       0.11322000       0.92873000
    46  C          0.18766000       0.61322000       0.07127000
    47  C          0.18766000       0.88678000       0.07127000
    48  C          0.81234000       0.38678000       0.92873000
    49  C          0.00984000       0.11442000       0.66403000
    50  C         -0.00984000       0.61442000       0.33597000
    51  C         -0.00984000       0.88558000       0.33597000
    52  C          0.00984000       0.38558000       0.66403000
    53  C         -0.00196000       0.17582000       0.59513000
    54  C          0.00196000       0.67582000       0.40487000
    55  C          0.00196000       0.82418000       0.40487000
    56  C         -0.00196000       0.32418000       0.59513000
    57  C          0.13233000       0.21362000       0.64223000
    58  C          0.86767000       0.71362000       0.35777000
    59  C          0.86767000       0.78638000       0.35777000
    60  C          0.13233000       0.28638000       0.64223000
    61  C          0.22684000       0.17472000       0.73973000
    62  C          0.77316000       0.67472000       0.26027000
    63  C          0.77316000       0.82528000       0.26027000
    64  C          0.22684000       0.32528000       0.73973000
    65  C          0.15224000       0.11442000       0.75443000
    66  C          0.84776000       0.61442000       0.24557000
    67  C          0.84776000       0.88558000       0.24557000
    68  C          0.15224000       0.38558000       0.75443000
    69  C          0.16954000       0.09112000       0.86074000
    70  C          0.83046000       0.59112000       0.13926000
    71  C          0.83046000       0.90888000       0.13926000
    72  C          0.16954000       0.40888000       0.86074000
    73  C          0.05004000       0.06832000       0.88383000
    74  C          0.94996000       0.56832000       0.11617000
    75  C          0.94996000       0.93168000       0.11617000
    76  C          0.05004000       0.43168000       0.88383000
    77  C          0.06934000       0.09082000      -0.00347000
    78  C          0.93066000       0.59082000       0.00347000
    79  C          0.93066000       0.90918000       0.00347000
    80  C          0.06934000       0.40918000      -0.00347000
    81  C          0.95574000       0.11242000       0.01793000
    82  C          0.04426000       0.61242000       0.98207000
    83  C          0.04426000       0.88758000       0.98207000
    84  C          0.95574000       0.38758000       0.01793000
    85  C          0.96564000       0.17503000       0.08653000
    86  C          0.03436000       0.67503000       0.91347000
    87  C          0.03436000       0.82497000       0.91347000
    88  C          0.96564000       0.32497000       0.08653000
    89  C          0.83354000       0.21342000       0.04113000
    90  C          0.16646000       0.71342000       0.95887000
    91  C          0.16646000       0.78658000       0.95887000
    92  C          0.83354000       0.28658000       0.04113000
    93  C          0.09504000       0.21142000       0.13143000
    94  C          0.90496000       0.71142000       0.86857000
    95  C          0.90496000       0.78858000       0.86857000
    96  C          0.09504000       0.28858000       0.13143000
    97  C          0.20244000       0.12902000       0.04243000
    98  C          0.79756000       0.62902000       0.95757000
    99  C          0.79756000       0.87098000       0.95757000
   100  C          0.20244000       0.37098000       0.04243000
   101  C          0.26524000       0.12882000       0.95983000
   102  C          0.73476000       0.62882000       0.04017000
   103  C          0.73476000       0.87118000       0.04017000
   104  C          0.26524000       0.37118000       0.95983000
   105  C          0.31903000       0.21172000       0.83493000
   106  C          0.68097000       0.71172000       0.16507000
   107  C          0.68097000       0.78828000       0.16507000
   108  C          0.31903000       0.28828000       0.83493000
   109  C          0.33823000       0.18742000       0.94713000
   110  C          0.66177000       0.68742000       0.05287000
   111  C          0.66177000       0.81258000       0.05287000
   112  C          0.33823000       0.31258000       0.94713000
   113  C          0.35015000       0.25000000       0.01654000
   114  C          0.64985000       0.75000000       0.98346000
   115  C          0.29025000       0.25000000       0.09584000
   116  C          0.70975000       0.75000000       0.90416000
   117  C          0.21504000       0.18822000       0.10953000
   118  C          0.78496000       0.68822000       0.89047000
   119  C          0.78496000       0.81178000       0.89047000
   120  C          0.21504000       0.31178000       0.10953000
   121  C          0.52095000       0.25000000       0.43884000
   122  C          0.47905000       0.75000000       0.56116000
   123  C          0.42003000       0.18812000       0.42032000
   124  C          0.57997000       0.68812000       0.57968000
   125  C          0.57997000       0.81188000       0.57968000
   126  C          0.42003000       0.31188000       0.42032000
   127  C          0.44484000       0.11662000       0.41053000
   128  C          0.55516000       0.61662000       0.58947000
   129  C          0.55516000       0.88338000       0.58947000
   130  C          0.44484000       0.38338000       0.41053000
   131  C          0.33254000       0.07012000       0.39013000
   132  C          0.66746000       0.57012000       0.60987000
   133  C          0.66746000       0.92988000       0.60987000
   134  C          0.33254000       0.42988000       0.39013000
   135  C          0.20024000       0.09332000       0.38173000
   136  C          0.79976000       0.59332000       0.61827000
   137  C          0.79976000       0.90668000       0.61827000
   138  C          0.20024000       0.40668000       0.38173000
   139  C          0.17433000       0.16392000       0.39053000
   140  C          0.82567000       0.66392000       0.60947000
   141  C          0.82567000       0.83608000       0.60947000
   142  C          0.17433000       0.33608000       0.39053000
   143  C          0.28523000       0.21082000       0.40932000
   144  C          0.71477000       0.71082000       0.59068000
   145  C          0.71477000       0.78918000       0.59068000
   146  C          0.28523000       0.28918000       0.40932000
   147  H          0.47540000       0.25000000       0.62130000
   148  H          0.52460000       0.75000000       0.37870000
   149  H          0.57240000       0.25000000       0.37730000
   150  H          0.42760000       0.75000000       0.62270000
   151  H          0.53590000       0.10020000       0.41770000
   152  H          0.46410000       0.60020000       0.58230000
   153  H          0.46410000       0.89980000       0.58230000
   154  H          0.53590000       0.39980000       0.41770000
   155  H          0.34680000       0.02120000       0.38170000
   156  H          0.65320000       0.52120000       0.61830000
   157  H          0.65320000       0.97880000       0.61830000
   158  H          0.34680000       0.47880000       0.38170000
   159  H          0.12590000       0.05990000       0.36950000
   160  H          0.87410000       0.55990000       0.63050000
   161  H          0.87410000       0.94010000       0.63050000
   162  H          0.12590000       0.44010000       0.36950000
   163  H          0.08290000       0.17990000       0.38390000
   164  H          0.91710000       0.67990000       0.61610000
   165  H          0.91710000       0.82010000       0.61610000
   166  H          0.08290000       0.32010000       0.38390000
   167  C          0.38716000       0.01233000       0.70826000
   168  C          0.61284000       0.51233000       0.29174000
   169  C          0.61284000       0.98767000       0.29174000
   170  C          0.38716000       0.48767000       0.70826000
   171  C          0.26705000       0.98437000       0.63814000
   172  C          0.73295000       0.48437000       0.36186000
   173  C          0.73295000       0.01563000       0.36186000
   174  C          0.26705000       0.51563000       0.63814000
   175  C          0.20835000       0.93137000       0.66724000
   176  C          0.79165000       0.43137000       0.33276000
   177  C          0.79165000       0.06863000       0.33276000
   178  C          0.20835000       0.56863000       0.66724000
   179  C          0.27117000       0.90577000       0.76976000
   180  C          0.72883000       0.40577000       0.23024000
   181  C          0.72883000       0.09423000       0.23024000
   182  C          0.27117000       0.59423000       0.76976000
   183  C          0.39277000       0.93305000       0.84245000
   184  C          0.60723000       0.43305000       0.15755000
   185  C          0.60723000       0.06695000       0.15755000
   186  C          0.39277000       0.56695000       0.84245000
   187  C          0.44856000       0.98605000       0.80996000
   188  C          0.55144000       0.48605000       0.19004000
   189  C          0.55144000       0.01395000       0.19004000
   190  C          0.44856000       0.51395000       0.80996000
   191  H          0.42810000       0.05090000       0.68440000
   192  H          0.57190000       0.55090000       0.31560000
   193  H          0.57190000       0.94910000       0.31560000
   194  H          0.42810000       0.44910000       0.68440000
   195  H          0.22110000       0.00310000       0.56390000
   196  H          0.77890000       0.50310000       0.43610000
   197  H          0.77890000      -0.00310000       0.43610000
   198  H          0.22110000       0.49690000       0.56390000
   199  H          0.12170000       0.91110000       0.61600000
   200  H          0.87830000       0.41110000       0.38400000
   201  H          0.87830000       0.08890000       0.38400000
   202  H          0.12170000       0.58890000       0.61600000
   203  H          0.22990000       0.86700000       0.79320000
   204  H          0.77010000       0.36700000       0.20680000
   205  H          0.77010000       0.13300000       0.20680000
   206  H          0.22990000       0.63300000       0.79320000
   207  H          0.43890000       0.91480000       0.91690000
   208  H          0.56110000       0.41480000       0.08310000
   209  H          0.56110000       0.08520000       0.08310000
   210  H          0.43890000       0.58520000       0.91690000
   211  H          0.53510000       0.00650000       0.86030000
   212  H          0.46490000       0.50650000       0.13970000
   213  H          0.46490000      -0.00650000       0.13970000
   214  H          0.53510000       0.49350000       0.86030000
