data_TUKFUB
_symmetry_space_group_name_H-M    'P1'
_symmetry_Int_Tables_number       1
loop_
_symmetry_equiv_pos_site_id
_symmetry_equiv_pos_as_xyz
1 x,y,z
_cell_length_a                   5.82581
_cell_length_b                   8.175614
_cell_length_c                   12.5922
_cell_angle_alpha                96.162
_cell_angle_beta                 98.022
_cell_angle_gamma                98.772
loop_
_atom_site_label
_atom_site_type_symbol
_atom_site_fract_x
_atom_site_fract_y
_atom_site_fract_z
     1  I          0.36688400       0.52981300       0.25477519
     2  I          0.63311600       0.47018700       0.74522481
     3  C          0.07528000       0.34746000       0.16734000
     4  C          0.92472000       0.65254000       0.83266000
     5  C          0.15937000       0.20605000       0.09933000
     6  C          0.84063000       0.79395000       0.90067000
     7  C          0.96233000       0.08034000       0.02383000
     8  C          0.03767000       0.91966000       0.97617000
     9  F          0.92924000       0.41514000       0.10553000
    10  F          0.07076000       0.58486000       0.89447000
    11  F          0.95334000       0.27695000       0.23743000
    12  F          0.04666000       0.72305000       0.76257000
    13  F          0.30676000       0.27555000       0.03753000
    14  F          0.69324000       0.72445000       0.96247000
    15  F          0.28166000       0.12674000       0.16643000
    16  F          0.71834000       0.87326000       0.83357000
    17  F          0.78325000       0.03714000       0.07572000
    18  F          0.21675000       0.96286000       0.92428000
    19  F          0.88204000       0.15823000       0.94128000
    20  F          0.11796000       0.84177000       0.05872000
    21  C          0.61855000       0.88694000       0.44383000
    22  C          0.38145000       0.11306000       0.55617000
    23  C          0.56567000       0.02915000       0.40193000
    24  C          0.43433000       0.97085000       0.59807000
    25  H          0.60860000       0.05140000       0.33590000
    26  H          0.39140000       0.94860000       0.66410000
    27  C          0.44907000       0.13915000       0.45723000
    28  C          0.55093000       0.86085000       0.54277000
    29  H          0.41530000       0.23310000       0.42670000
    30  H          0.58470000       0.76690000       0.57330000
    31  N          0.72935000       0.76994000       0.38552000
    32  N          0.27065000       0.23006000       0.61448000
    33  C          0.86469000       0.83446000       0.30564000
    34  C          0.13531000       0.16554000       0.69436000
    35  H          0.93150000       0.74640000       0.27140000
    36  H          0.06850000       0.25360000       0.72860000
    37  H         -0.01160000       0.92290000       0.34070000
    38  H          0.01160000       0.07710000       0.65930000
    39  H          0.76320000       0.87650000       0.25210000
    40  H          0.23680000       0.12350000       0.74790000
    41  C          0.85508000       0.66326000       0.45104000
    42  C          0.14492000       0.33674000       0.54896000
    43  H          0.92240000       0.58900000       0.40470000
    44  H          0.07760000       0.41100000       0.59530000
    45  H          0.74710000       0.59910000       0.48800000
    46  H          0.25290000       0.40090000       0.51200000
    47  H         -0.02220000       0.73160000       0.50290000
    48  H          0.02220000       0.26840000       0.49710000
