data_TUKSOK
_symmetry_space_group_name_H-M    'P1'
_symmetry_Int_Tables_number       1
loop_
_symmetry_equiv_pos_site_id
_symmetry_equiv_pos_as_xyz
1 x,y,z
_cell_length_a                   9.69484
_cell_length_b                   10.41544
_cell_length_c                   25.08521
_cell_angle_alpha                94.5033
_cell_angle_beta                 97.8684
_cell_angle_gamma                113.9894
loop_
_atom_site_label
_atom_site_type_symbol
_atom_site_fract_x
_atom_site_fract_y
_atom_site_fract_z
     1  I          0.66400200       0.96309200       0.58144200
     2  I          0.33599800       0.03690800       0.41855800
     3  O          0.04702000       0.61882000       0.55344100
     4  O          0.95298000       0.38118000       0.44655900
     5  C          0.79303000       0.84523000       0.57428120
     6  C          0.20697000       0.15477000       0.42571880
     7  C          0.94013000       0.91713000       0.56423120
     8  C          0.05987000       0.08287000       0.43576880
     9  H         -0.02077900       0.01580900       0.56197100
    10  H          0.02077900      -0.01580900       0.43802900
    11  C          0.02933000       0.84463000       0.55755120
    12  C          0.97067000       0.15537000       0.44244880
    13  H          0.13064500       0.89311300       0.55095000
    14  H          0.86935500       0.10688700       0.44905000
    15  C          0.97033000       0.70143000       0.56051120
    16  C          0.02967000       0.29857000       0.43948880
    17  C          0.82213000       0.62983000       0.57118120
    18  C          0.17787000       0.37017000       0.42881880
    19  H          0.78415700       0.53143400       0.57402600
    20  H          0.21584300       0.46856600       0.42597400
    21  C          0.72953000       0.70063000       0.57767110
    22  C          0.27047000       0.29937000       0.42232890
    23  C          0.56723000       0.61973000       0.58550140
    24  C          0.43277000       0.38027000       0.41449860
    25  H          0.54682800       0.51986900       0.58675400
    26  H          0.45317200       0.48013100       0.41324600
    27  H          0.49597400       0.62576300       0.55513500
    28  H          0.50402600       0.37423700       0.44486500
    29  H          0.55297000       0.66060300       0.61971600
    30  H          0.44703000       0.33939700       0.38028400
    31  C          0.19304000       0.68434000       0.53686160
    32  C          0.80696000       0.31566000       0.46313840
    33  H          0.23379100       0.61335500       0.53088400
    34  H          0.76620900       0.38664500       0.46911600
    35  H          0.26476600       0.76149400       0.56535100
    36  H          0.73523400       0.23850600       0.43464900
    37  H          0.18014500       0.72262900       0.50302000
    38  H          0.81985500       0.27737100       0.49698000
    39  C          0.68263000       0.96593000       0.66632120
    40  C          0.31737000       0.03407000       0.33367880
    41  C          0.82684000       0.01484000       0.69850130
    42  C          0.17316000      -0.01484000       0.30149870
    43  H          0.91680000       0.04692100       0.68294600
    44  H          0.08320000       0.95307900       0.31705400
    45  C          0.83584000       0.01554000       0.75407140
    46  C          0.16416000      -0.01554000       0.24592860
    47  H          0.93343900       0.04905100       0.77715600
    48  H          0.06656100       0.95094900       0.22284400
    49  C          0.70485000       0.96814000       0.77616150
    50  C          0.29515000       0.03186000       0.22383850
    51  H          0.71228000       0.97003900       0.81440000
    52  H          0.28772000       0.02996100       0.18560000
    53  C          0.56354000       0.91814000       0.74317140
    54  C          0.43646000       0.08186000       0.25682860
    55  H          0.47333200       0.88394100       0.75860900
    56  H          0.52666800       0.11605900       0.24139100
    57  C          0.55124000       0.91694000       0.68770130
    58  C          0.44876000       0.08306000       0.31229870
    59  H          0.45326200       0.88275800       0.66475000
    60  H          0.54673800       0.11724200       0.33525000
    61  O          0.64622000       0.94872000       0.47065800
    62  O          0.35378000       0.05128000       0.52934200
    63  O          0.46873000       0.85973000       0.38566900
    64  O          0.53127000       0.14027000       0.61433100
    65  O          0.45633000       0.70762000       0.45497110
    66  O          0.54367000       0.29238000       0.54502890
    67  S          0.55160800       0.82470800       0.43058300
    68  S          0.44839200       0.17529200       0.56941700
    69  C          0.68033000       0.76953000       0.40191120
    70  C          0.31967000       0.23047000       0.59808880
    71  C          0.70153000       0.78584000       0.34889130
    72  C          0.29847000       0.21416000       0.65110870
    73  H          0.65002900       0.82961100       0.32725500
    74  H          0.34997100       0.17038900       0.67274500
    75  C          0.79964000       0.73684000       0.32809140
    76  C          0.20036000       0.26316000       0.67190860
    77  H          0.81341000       0.74666600       0.29162800
    78  H          0.18659000       0.25333400       0.70837200
    79  C          0.87744000       0.67444000       0.35842140
    80  C          0.12256000       0.32556000       0.64157860
    81  C          0.85613000       0.66183000       0.41167130
    82  C          0.14387000       0.33817000       0.58832870
    83  H          0.91030300       0.62080500       0.43366500
    84  H          0.08969700       0.37919500       0.56633500
    85  C          0.75803000       0.70743000       0.43321130
    86  C          0.24197000       0.29257000       0.56678870
    87  H          0.74359100       0.69629900       0.46956100
    88  H          0.25640900       0.30370100       0.53043900
    89  C         -0.01716000       0.62085000       0.33551160
    90  C          0.01716000       0.37915000       0.66448840
    91  H          0.08382000       0.66275600       0.35945300
    92  H          0.91618000       0.33724400       0.64054700
    93  H         -0.00630500       0.64764600       0.29921300
    94  H          0.00630500       0.35235400       0.70078700
    95  H          0.93966500       0.51707400       0.33291300
    96  H          0.06033500       0.48292600       0.66708700
    97  I          0.82183200       0.53726200       0.90930200
    98  I          0.17816800       0.46273800       0.09069800
    99  O          0.41582000       0.84872000       0.95294900
   100  O          0.58418000       0.15128000       0.04705100
   101  C          0.68113000       0.64043000       0.92130120
   102  C          0.31887000       0.35957000       0.07869880
   103  C          0.53973000       0.56303000       0.93459120
   104  C          0.46027000       0.43697000       0.06540880
   105  H          0.50660400       0.46432400       0.93611800
   106  H          0.49339600       0.53567600       0.06388200
   107  C          0.44663000       0.62883000       0.94566130
   108  C          0.55337000       0.37117000       0.05433870
   109  H          0.34973100       0.57639200       0.95522500
   110  H          0.65026900       0.42360800       0.04477500
   111  C          0.49613000       0.77134000       0.94262120
   112  C          0.50387000       0.22866000       0.05737880
   113  C          0.63893000       0.84973000       0.92911110
   114  C          0.36107000       0.15027000       0.07088890
   115  H          0.67044500       0.94795600       0.92688900
   116  H          0.32955500       0.05204400       0.07311100
   117  C          0.73533000       0.78593000       0.91891120
   118  C          0.26467000       0.21407000       0.08108880
   119  C          0.89413000       0.87554000       0.90880140
   120  C          0.10587000       0.12446000       0.09119860
   121  H          0.90427200       0.97177700       0.90524000
   122  H          0.09572800       0.02822300       0.09476000
   123  H          0.91003500       0.83317000       0.87521000
   124  H          0.08996500       0.16683000       0.12479000
   125  H          0.97112900       0.87953300       0.93940100
   126  H          0.02887100       0.12046700       0.06059900
   127  C          0.27654000       0.77814000       0.97401160
   128  C          0.72346000       0.22186000       0.02598840
   129  H          0.22760900       0.84299300       0.97888800
   130  H          0.77239100       0.15700700       0.02111200
   131  H          0.30154300       0.74987300       0.00910700
   132  H          0.69845700       0.25012700       0.99089300
   133  H          0.20590200       0.69344000       0.94829500
   134  H          0.79409800       0.30656000       0.05170500
   135  C          0.75013000       0.48564000       0.82342120
   136  C          0.24987000       0.51436000       0.17657880
   137  C          0.70264000       0.57294000       0.79534140
   138  C          0.29736000       0.42706000       0.20465860
   139  H          0.69707900       0.65313600       0.81399700
   140  H          0.30292100       0.34686400       0.18600300
   141  C          0.66284000       0.54094000       0.73901140
   142  C          0.33716000       0.45906000       0.26098860
   143  H          0.63095500       0.60041500       0.71866700
   144  H          0.36904500       0.39958500       0.28133300
   145  C          0.66944000       0.42384000       0.71271140
   146  C          0.33056000       0.57616000       0.28728860
   147  H          0.64217400       0.40263500       0.67416500
   148  H          0.35782600       0.59736500       0.32583500
   149  C          0.71484000       0.33744000       0.74140140
   150  C          0.28516000       0.66256000       0.25859860
   151  H          0.71728200       0.25577800       0.72261000
   152  H          0.28271800       0.74422200       0.27739000
   153  C          0.75733000       0.36704000       0.79772130
   154  C          0.24267000       0.63296000       0.20227870
   155  H          0.79022900       0.30767500       0.81782600
   156  H          0.20977100       0.69232500       0.18217400
   157  O          0.03813000       0.42983000       0.89338110
   158  O          0.96187000       0.57017000       0.10661890
   159  O          0.07043000       0.35144000       0.98004100
   160  O          0.92957000       0.64856000       0.01995900
   161  O          0.87392000       0.19423000       0.90548110
   162  O          0.12608000       0.80577000       0.09451890
   163  S          0.02421900       0.31097900       0.92228300
   164  S          0.97578100       0.68902100       0.07771700
   165  C          0.15803000       0.25033000       0.90131120
   166  C          0.84197000       0.74967000       0.09868880
   167  C          0.19254000       0.26284000       0.84960130
   168  C          0.80746000       0.73716000       0.15039870
   169  H          0.14618800       0.30556000       0.82524400
   170  H          0.85381200       0.69444000       0.17475600
   171  C          0.29514000       0.21244000       0.83370140
   172  C          0.70486000       0.78756000       0.16629860
   173  H          0.31957700       0.22238500       0.79841100
   174  H          0.68042300       0.77761500       0.20158900
   175  C          0.36273000       0.14814000       0.86800130
   176  C          0.63727000       0.85186000       0.13199870
   177  C          0.32723000       0.13793000       0.91974130
   178  C          0.67277000       0.86207000       0.08025870
   179  H          0.37301000       0.09489700       0.94415800
   180  H          0.62699000       0.90510300       0.05584200
   181  C          0.22723000       0.18873000       0.93629120
   182  C          0.77277000       0.81127000       0.06370880
   183  H          0.20545100       0.18152200       0.97201300
   184  H          0.79454900       0.81847800       0.02798700
   185  C          0.47034000       0.09044000       0.85046150
   186  C          0.52966000       0.90956000       0.14953850
   187  H          0.56988200       0.13702500       0.87519300
   188  H          0.43011800       0.86297500       0.12480700
   189  H          0.48393400       0.10871200       0.81336900
   190  H          0.51606600       0.89128800       0.18663100
   191  H          0.42758100      -0.01216700       0.85131800
   192  H          0.57241900       0.01216700       0.14868200
   193  O          0.21573000       0.72733000       0.76228110
   194  O          0.78427000       0.27267000       0.23771890
   195  C          0.10427000       0.84947000       0.71022000
   196  C          0.89573000       0.15053000       0.28978000
   197  H          0.01136100       0.86553000       0.70162000
   198  H         -0.01136100       0.13447000       0.29838000
   199  H          0.11691500       0.79899400       0.67787100
   200  H          0.88308500       0.20100600       0.32212900
   201  H          0.19383200       0.94096400       0.72138300
   202  H          0.80616800       0.05903600       0.27861700
   203  C          0.08985000       0.76196000       0.75552000
   204  C          0.91015000       0.23804000       0.24448000
   205  H          0.08905300       0.81640200       0.78952000
   206  H          0.91094700       0.18359800       0.21048000
   207  H         -0.00721500       0.67426600       0.74641400
   208  H          0.00721500       0.32573400       0.25358600
   209  C          0.21456000       0.63915000       0.80284170
   210  C          0.78544000       0.36085000       0.19715830
   211  H          0.11662100       0.55231300       0.79555200
   212  H          0.88337900       0.44768700       0.20444800
   213  H          0.22534500       0.69043800       0.83919600
   214  H          0.77465500       0.30956200       0.16080400
   215  C          0.34716000       0.60066000       0.80102000
   216  C          0.65284000       0.39934000       0.19898000
   217  H          0.35257300       0.54311800       0.82961600
   218  H          0.64742700       0.45688200       0.17038400
   219  H          0.44278800       0.68742500       0.80664700
   220  H          0.55721200       0.31257500       0.19335300
   221  H          0.33261400       0.54596800       0.76538800
   222  H          0.66738600       0.45403200       0.23461200
