data_TUKZIM
_symmetry_space_group_name_H-M    'P1'
_symmetry_Int_Tables_number       1
loop_
_symmetry_equiv_pos_site_id
_symmetry_equiv_pos_as_xyz
1 x,y,z
_cell_length_a                   5.33252
_cell_length_b                   23.09251
_cell_length_c                   8.75543
_cell_angle_alpha                90.0
_cell_angle_beta                 100.26701
_cell_angle_gamma                90.0
loop_
_atom_site_label
_atom_site_type_symbol
_atom_site_fract_x
_atom_site_fract_y
_atom_site_fract_z
     1  S          0.13076140       0.62271300       0.24291800
     2  S          0.86923860       0.12271300       0.25708200
     3  S          0.86923860       0.37728700       0.75708200
     4  S          0.13076140       0.87728700       0.74291800
     5  O          0.12144000       0.67059800       0.36392000
     6  O          0.87856000       0.17059800       0.13608000
     7  O          0.87856000       0.32940200       0.63608000
     8  O          0.12144000       0.82940200       0.86392000
     9  C          0.19676000       0.55755120       0.35104000
    10  C          0.80324000       0.05755120       0.14896000
    11  C          0.80324000       0.44244880       0.64896000
    12  C          0.19676000       0.94244880       0.85104000
    13  H          0.37074000       0.55893700       0.41037500
    14  H          0.62926000       0.05893700       0.08962500
    15  H          0.62926000       0.44106300       0.58962500
    16  H          0.37074000       0.94106300       0.91037500
    17  H          0.17994000       0.52448800       0.27975800
    18  H          0.82006000       0.02448800       0.22024200
    19  H          0.82006000       0.47551200       0.72024200
    20  H          0.17994000       0.97551200       0.77975800
    21  H          0.07578500       0.55334600       0.42246400
    22  H          0.92421500       0.05334600       0.07753600
    23  H          0.92421500       0.44665400       0.57753600
    24  H          0.07578500       0.94665400       0.92246400
    25  C          0.80996000       0.60658130       0.16134000
    26  C          0.19004000       0.10658130       0.33866000
    27  C          0.19004000       0.39341870       0.83866000
    28  C          0.80996000       0.89341870       0.66134000
    29  H          0.71662300       0.59624200       0.24422500
    30  H          0.28337700       0.09624200       0.25577500
    31  H          0.28337700       0.40375800       0.75577500
    32  H          0.71662300       0.90375800       0.74422500
    33  H          0.80517100       0.57401900       0.08904100
    34  H          0.19482900       0.07401900       0.41095900
    35  H          0.19482900       0.42598100       0.91095900
    36  H          0.80517100       0.92598100       0.58904100
    37  H          0.73042800       0.64056000       0.10544700
    38  H          0.26957200       0.14056000       0.39455300
    39  H          0.26957200       0.35944000       0.89455300
    40  H          0.73042800       0.85944000       0.60544700
    41  O          0.83214000       0.76883800       0.50042000
    42  O          0.16786000       0.26883800      -0.00042000
    43  O          0.16786000       0.23116200       0.49958000
    44  O          0.83214000       0.73116200       0.00042000
    45  O          0.76744000       0.58155800       0.60102000
    46  O          0.23256000       0.08155800       0.89898000
    47  O          0.23256000       0.41844200       0.39898000
    48  O          0.76744000       0.91844200       0.10102000
    49  N          0.71574000       0.73319900       0.56852000
    50  N          0.28426000       0.23319900       0.93148000
    51  N          0.28426000       0.26680100       0.43148000
    52  N          0.71574000       0.76680100       0.06852000
    53  N          0.54784000       0.75067900       0.64942000
    54  N          0.45216000       0.25067900       0.85058000
    55  N          0.45216000       0.24932100       0.35058000
    56  N          0.54784000       0.74932100       0.14942000
    57  N          0.26494000       0.71310110       0.80563000
    58  N          0.73506000       0.21310110       0.69437000
    59  N          0.73506000       0.28689890       0.19437000
    60  N          0.26494000       0.78689890       0.30563000
    61  N          0.77745000       0.67658100       0.55123000
    62  N          0.22255000       0.17658100       0.94877000
    63  N          0.22255000       0.32341900       0.44877000
    64  N          0.77745000       0.82341900       0.05123000
    65  O          0.16525000       0.54965900       0.93263000
    66  O          0.83475000       0.04965900       0.56737000
    67  O          0.83475000       0.45034100       0.06737000
    68  O          0.16525000       0.95034100       0.43263000
    69  N          0.19074000       0.66214100       0.86053000
    70  N          0.80926000       0.16214100       0.63947000
    71  N          0.80926000       0.33785900       0.13947000
    72  N          0.19074000       0.83785900       0.36053000
    73  N          0.29145000       0.56275100       0.83723000
    74  N          0.70855000       0.06275100       0.66277000
    75  N          0.70855000       0.43724900       0.16277000
    76  N          0.29145000       0.93724900       0.33723000
    77  O          0.38735000       0.52775100       0.75983000
    78  O          0.61265000       0.02775100       0.74017000
    79  O          0.61265000       0.47224900       0.24017000
    80  O          0.38735000       0.97224900       0.25983000
    81  C          0.49325000       0.64697110       0.71103000
    82  C          0.50675000       0.14697110       0.78897000
    83  C          0.50675000       0.35302890       0.28897000
    84  C          0.49325000       0.85302890       0.21103000
    85  C          0.44255000       0.70554110       0.71713000
    86  C          0.55745000       0.20554110       0.78287000
    87  C          0.55745000       0.29445890       0.28287000
    88  C          0.44255000       0.79445890       0.21713000
    89  C          0.32895000       0.62309110       0.80293000
    90  C          0.67105000       0.12309110       0.69707000
    91  C          0.67105000       0.37690890       0.19707000
    92  C          0.32895000       0.87690890       0.30293000
    93  C          0.68315000       0.62915110       0.62263000
    94  C          0.31685000       0.12915110       0.87737000
    95  C          0.31685000       0.37084890       0.37737000
    96  C          0.68315000       0.87084890       0.12263000
    97  H          0.20160000       0.74251300       0.82340000
    98  H          0.79840000       0.24251300       0.67660000
    99  H          0.79840000       0.25748700       0.17660000
   100  H          0.20160000       0.75748700       0.32340000
   101  H          0.88970000       0.67471500       0.49740000
   102  H          0.11030000       0.17471500       0.00260000
   103  H          0.11030000       0.32528500       0.50260000
   104  H          0.88970000       0.82528500      -0.00260000
