data_TULRIB
_symmetry_space_group_name_H-M    'P1'
_symmetry_Int_Tables_number       1
loop_
_symmetry_equiv_pos_site_id
_symmetry_equiv_pos_as_xyz
1 x,y,z
_cell_length_a                   6.23169
_cell_length_b                   9.477812
_cell_length_c                   12.2522
_cell_angle_alpha                87.94212
_cell_angle_beta                 84.59112
_cell_angle_gamma                85.87711
loop_
_atom_site_label
_atom_site_type_symbol
_atom_site_fract_x
_atom_site_fract_y
_atom_site_fract_z
     1  I          0.22369400       0.09266200       0.03555200
     2  I          0.77630600       0.90733800       0.96444800
     3  O          0.06245000       0.25913000       0.03763000
     4  O          0.93755000       0.74087000       0.96237000
     5  O          0.15535000       0.03273000       0.90648000
     6  O          0.84465000       0.96727000       0.09352000
     7  O          0.48865000       0.15663000      -0.00573000
     8  O          0.51135000       0.84337000       0.00573000
     9  I          0.68529400       0.36627200       0.93760800
    10  I          0.31470600       0.63372800       0.06239200
    11  O          0.86846000       0.50523000       0.87897000
    12  O          0.13154000       0.49477000       0.12103000
    13  O          0.43635000       0.44813000       0.89697000
    14  O          0.56365000       0.55187000       0.10303000
    15  O          0.76885000       0.25813000       0.82058000
    16  O          0.23115000       0.74187000       0.17942000
    17  H          0.86387300       0.57634800       0.90656400
    18  H          0.13612700       0.42365200       0.09343600
    19  I          0.83023400       0.75472300       0.26204200
    20  I          0.16976600       0.24527700       0.73795800
    21  O          0.53426000       0.79196000       0.30694000
    22  O          0.46574000       0.20804000       0.69306000
    23  O          0.89685000       0.90683000       0.32933000
    24  O          0.10315000       0.09317000       0.67067000
    25  O          0.87808000       0.61964000       0.36133000
    26  O          0.12192000       0.38036000       0.63867000
    27  H          0.46811000       0.78027400       0.25785800
    28  H          0.53189000       0.21972600       0.74214200
    29  O          0.26556000       0.15484000       0.26183000
    30  O          0.73444000       0.84516000       0.73817000
    31  O          0.21256000       0.00894000       0.40783000
    32  O          0.78744000      -0.00894000       0.59217000
    33  N          0.60306000       0.27743000       0.36753000
    34  N          0.39694000       0.72257000       0.63247000
    35  C          0.77108000       0.30135000       0.44474000
    36  C          0.22892000       0.69865000       0.55526000
    37  C          0.44148000       0.40134000       0.37104000
    38  C          0.55852000       0.59866000       0.62896000
    39  C          0.71479000       0.26186000       0.25384000
    40  C          0.28521000       0.73814000       0.74616000
    41  C          0.50197000       0.14444000       0.40853000
    42  C          0.49803000       0.85556000       0.59147000
    43  C          0.31557000       0.10504000       0.34883000
    44  C          0.68443000       0.89496000       0.65117000
    45  H          0.88211000       0.23006900       0.44965200
    46  H          0.11789000       0.76993100       0.55034800
    47  H          0.83829500       0.39036300       0.42184800
    48  H          0.16170500       0.60963700       0.57815200
    49  H          0.69979300       0.31155700       0.50865000
    50  H          0.30020700       0.68844300       0.49135000
    51  H          0.50798900       0.48495900       0.36264400
    52  H          0.49201100       0.51504100       0.63735600
    53  H          0.33569100       0.39435700       0.31284600
    54  H          0.66430900       0.60564300       0.68715400
    55  H          0.36718900       0.41095500       0.43984600
    56  H          0.63281100       0.58904500       0.56015400
    57  H          0.79458900       0.32925800       0.23204400
    58  H          0.20541100       0.67074200       0.76795600
    59  H          0.81297600       0.19294800       0.25123600
    60  H          0.18702400       0.80705200       0.74876400
    61  H          0.62409900       0.23136300       0.20205100
    62  H          0.37590100       0.76863700       0.79794900
    63  H          0.44907200       0.15754600       0.48493800
    64  H          0.55092800       0.84245400       0.51506200
    65  H          0.60038900       0.07175700       0.39594400
    66  H          0.39961100       0.92824300       0.60405600
    67  H          0.15217000       0.96070100       0.37248200
    68  H          0.84783000       0.03929900       0.62751800
