data_TUPRBN01
_symmetry_space_group_name_H-M    'P1'
_symmetry_Int_Tables_number       1
loop_
_symmetry_equiv_pos_site_id
_symmetry_equiv_pos_as_xyz
1 x,y,z
_cell_length_a                   10.9162
_cell_length_b                   6.2922
_cell_length_c                   6.1582
_cell_angle_alpha                90.0
_cell_angle_beta                 114.262
_cell_angle_gamma                90.0
loop_
_atom_site_label
_atom_site_type_symbol
_atom_site_fract_x
_atom_site_fract_y
_atom_site_fract_z
     1  N          0.68501000       0.25000000       0.21212000
     2  N          0.31499000       0.75000000       0.78788000
     3  C          0.55531000       0.25000000       0.19752000
     4  C          0.44469000       0.75000000       0.80248000
     5  O          0.45372000       0.25000000       0.01593000
     6  O          0.54628000       0.75000000      -0.01593000
     7  N          0.56221000       0.25000000       0.42762000
     8  N          0.43779000       0.75000000       0.57238000
     9  C          0.69221000       0.25000000       0.58902000
    10  C          0.30779000       0.75000000       0.41098000
    11  O          0.73732000       0.25000000       0.80433000
    12  O          0.26268000       0.75000000       0.19567000
    13  C          0.77681000       0.25000000       0.44302000
    14  C          0.22319000       0.75000000       0.55698000
    15  O          0.89792000       0.25000000       0.52073000
    16  O          0.10208000       0.75000000       0.47927000
    17  H          0.69780000       0.25000000       0.05350000
    18  H          0.30220000       0.75000000       0.94650000
    19  H          0.47320000       0.25000000       0.45200000
    20  H          0.52680000       0.75000000       0.54800000
    21  S          0.27053000       0.25000000       0.46286000
    22  S          0.72947000       0.75000000       0.53714000
    23  C          0.14771000       0.25000000       0.18102000
    24  C          0.85229000       0.75000000       0.81898000
    25  N          0.17302000       0.25000000      -0.01213000
    26  N          0.82698000       0.75000000       0.01213000
    27  N          0.01992000       0.25000000       0.14944000
    28  N          0.98008000       0.75000000       0.85056000
    29  H         -0.00380000       0.25000000       0.29160000
    30  H          0.00380000       0.75000000       0.70840000
    31  H          0.94520000       0.25000000      -0.01490000
    32  H          0.05480000       0.75000000       0.01490000
    33  H          0.26880000       0.25000000       0.00620000
    34  H          0.73120000       0.75000000      -0.00620000
    35  H          0.09560000       0.25000000       0.82700000
    36  H          0.90440000       0.75000000       0.17300000
