data_TUPWIL
_symmetry_space_group_name_H-M    'P1'
_symmetry_Int_Tables_number       1
loop_
_symmetry_equiv_pos_site_id
_symmetry_equiv_pos_as_xyz
1 x,y,z
_cell_length_a                   9.30595
_cell_length_b                   10.70528
_cell_length_c                   11.89507
_cell_angle_alpha                94.4323
_cell_angle_beta                 93.3412
_cell_angle_gamma                109.5023
loop_
_atom_site_label
_atom_site_type_symbol
_atom_site_fract_x
_atom_site_fract_y
_atom_site_fract_z
     1  O          0.27402000       0.87212000       0.70402140
     2  O          0.72598000       0.12788000       0.29597860
     3  C          0.27033000       0.94653000       0.52242000
     4  C          0.72967000       0.05347000       0.47758000
     5  H          0.19350000       0.98020000       0.54900000
     6  H          0.80650000       0.01980000       0.45100000
     7  H          0.22830000       0.88460000       0.45620000
     8  H          0.77170000       0.11540000       0.54380000
     9  H          0.35600000       0.01910000       0.50370000
    10  H          0.64400000       0.98090000       0.49630000
    11  C          0.32168180       0.87804160       0.61225160
    12  C          0.67831820       0.12195840       0.38774840
    13  O          0.42181150       0.82324120       0.58533100
    14  O          0.57818850       0.17675880       0.41466900
    15  H          0.44480000       0.78870000       0.63960000
    16  H          0.55520000       0.21130000       0.36040000
    17  C          0.43491170       0.18195150       0.14948130
    18  C          0.56508830       0.81804850       0.85051870
    19  H          0.50800000       0.13440000       0.14250000
    20  H          0.49200000       0.86560000       0.85750000
    21  C          0.41782000       0.23502000       0.03418140
    22  C          0.58218000       0.76498000       0.96581860
    23  H          0.34630000       0.28420000       0.04030000
    24  H          0.65370000       0.71580000       0.95970000
    25  C          0.57052000       0.33189190       0.01370140
    26  C          0.42948000       0.66810810       0.98629860
    27  C          0.63932000       0.44701170       0.10477140
    28  C          0.36068000       0.55298830       0.89522860
    29  H          0.57140000       0.49990000       0.10810000
    30  H          0.42860000       0.50010000       0.89190000
    31  C          0.64521170       0.38984140       0.21975120
    32  C          0.35478830       0.61015860       0.78024880
    33  H          0.72090000       0.34450000       0.21680000
    34  H          0.27910000       0.65550000       0.78320000
    35  C          0.70122190       0.49821140       0.31787130
    36  C          0.29877810       0.50178860       0.68212870
    37  C          0.61162000       0.57269150       0.35615140
    38  C          0.38838000       0.42730850       0.64384860
    39  C          0.66753000       0.67106170       0.44625160
    40  C          0.33247000       0.32893830       0.55374840
    41  H          0.60690000       0.71900000       0.47220000
    42  H          0.39310000       0.28100000       0.52780000
    43  C          0.81223000       0.69772000       0.49702180
    44  C          0.18777000       0.30228000       0.50297820
    45  H          0.84950000       0.76450000       0.55690000
    46  H          0.15050000       0.23550000       0.44310000
    47  C          0.90243000       0.62712000       0.46067180
    48  C          0.09757000       0.37288000       0.53932820
    49  H          0.00050000       0.64580000       0.49530000
    50  H         -0.00050000       0.35420000       0.50470000
    51  C          0.84572000       0.52775170       0.37193160
    52  C          0.15428000       0.47224830       0.62806840
    53  H          0.90670000       0.47940000       0.34790000
    54  H          0.09330000       0.52060000       0.65210000
    55  C          0.37323000       0.61292000       0.33376190
    56  C          0.62677000       0.38708000       0.66623810
    57  H          0.35400000       0.60130000       0.41140000
    58  H          0.64600000       0.39870000       0.58860000
    59  H          0.27810000       0.57950000       0.28700000
    60  H          0.72190000       0.42050000       0.71300000
    61  H          0.42200000       0.70580000       0.32610000
    62  H          0.57800000       0.29420000       0.67390000
    63  C          0.79673000       0.53742000       0.08009190
    64  C          0.20327000       0.46258000       0.91990810
    65  H          0.86620000       0.48830000       0.07990000
    66  H          0.13380000       0.51170000       0.92010000
    67  H          0.83350000       0.61170000       0.13740000
    68  H          0.16650000       0.38830000       0.86260000
    69  H          0.78970000       0.56920000       0.00740000
    70  H          0.21030000       0.43080000      -0.00740000
    71  C          0.35263000       0.12373000       0.93871820
    72  C          0.64737000       0.87627000       0.06128180
    73  H          0.35570000       0.16120000       0.86780000
    74  H          0.64430000       0.83880000       0.13220000
    75  H          0.24860000       0.07370000       0.94990000
    76  H          0.75140000       0.92630000       0.05010000
    77  H          0.41240000       0.06590000       0.93810000
    78  H          0.58760000       0.93410000       0.06190000
    79  C          0.28810180       0.08293160       0.18040140
    80  C          0.71189820       0.91706840       0.81959860
    81  C          0.27652000       0.95205820       0.18907170
    82  C          0.72348000       0.04794180       0.81092830
    83  H          0.36080000       0.92630000       0.17650000
    84  H          0.63920000       0.07370000       0.82350000
    85  C          0.14412000       0.85868000       0.21582000
    86  C          0.85588000       0.14132000       0.78418000
    87  H          0.13850000       0.77080000       0.21960000
    88  H          0.86150000       0.22920000       0.78040000
    89  C          0.02072000       0.89648000       0.23662000
    90  C         -0.02072000       0.10352000       0.76338000
    91  H          0.93160000       0.83410000       0.25600000
    92  H          0.06840000       0.16590000       0.74400000
    93  C          0.02672000       0.02542000       0.22903160
    94  C          0.97328000       0.97458000       0.77096840
    95  H          0.94230000       0.05020000       0.24330000
    96  H          0.05770000       0.94980000       0.75670000
    97  C          0.15927180       0.11803170       0.20012140
    98  C          0.84072820       0.88196830       0.79987860
    99  C          0.04283000       0.28463000       0.18172000
   100  C          0.95717000       0.71537000       0.81828000
   101  H          0.97490000       0.23190000       0.11860000
   102  H          0.02510000       0.76810000       0.88140000
   103  H          0.07040000       0.37730000       0.17060000
   104  H          0.92960000       0.62270000       0.82940000
   105  H         -0.00750000       0.26860000       0.25000000
   106  H          0.00750000       0.73140000       0.75000000
   107  N          0.49978140       0.28941120       0.24234100
   108  N          0.50021860       0.71058880       0.75765900
   109  O          0.63714190       0.31782170       0.93202880
   110  O          0.36285810       0.68217830       0.06797120
   111  O          0.47078150       0.54141120       0.29933110
   112  O          0.52921850       0.45858880       0.70066890
   113  O          0.17552130       0.24937120       0.19021120
   114  O          0.82447870       0.75062880       0.80978880
   115  H          0.43281900       0.32761600       0.25631400
   116  H          0.56718100       0.67238400       0.74368600
