data_TURPYB03
_symmetry_space_group_name_H-M    'P1'
_symmetry_Int_Tables_number       1
loop_
_symmetry_equiv_pos_site_id
_symmetry_equiv_pos_as_xyz
1 x,y,z
_cell_length_a                   14.4312
_cell_length_b                   10.9842
_cell_length_c                   8.2915
_cell_angle_alpha                90.0
_cell_angle_beta                 90.0
_cell_angle_gamma                90.0
loop_
_atom_site_label
_atom_site_type_symbol
_atom_site_fract_x
_atom_site_fract_y
_atom_site_fract_z
     1  N          0.64247000       0.83393000       0.42375000
     2  N          0.14247000       0.33393000       0.07625000
     3  N          0.14247000       0.16607000       0.57625000
     4  N          0.64247000       0.66607000       0.92375000
     5  C          0.62396000       0.71534000       0.44794000
     6  C          0.12396000       0.21534000       0.05206000
     7  C          0.12396000       0.28466000       0.55206000
     8  C          0.62396000       0.78466000       0.94794000
     9  C          0.72296000       0.88314000       0.46344000
    10  C          0.22296000       0.38314000       0.03656000
    11  C          0.22296000       0.11686000       0.53656000
    12  C          0.72296000       0.61686000       0.96344000
    13  C          0.77696000       0.69014000       0.55114000
    14  C          0.27696000       0.19014000       0.94886000
    15  C          0.27696000       0.30986000       0.44886000
    16  C          0.77696000       0.80986000       0.05114000
    17  C          0.79187000       0.81324000       0.52873000
    18  C          0.29187000       0.31324000       0.97127000
    19  C          0.29187000       0.18676000       0.47127000
    20  C          0.79187000       0.68676000       0.02873000
    21  C          0.69275000       0.64104000       0.51224000
    22  C          0.19275000       0.14104000      -0.01224000
    23  C          0.19275000       0.35896000       0.48776000
    24  C          0.69275000       0.85896000       0.01224000
    25  H          0.59340000       0.88690000       0.37340000
    26  H          0.09340000       0.38690000       0.12660000
    27  H          0.09340000       0.11310000       0.62660000
    28  H          0.59340000       0.61310000       0.87340000
    29  H          0.56170000       0.68070000       0.41770000
    30  H          0.06170000       0.18070000       0.08230000
    31  H          0.06170000       0.31930000       0.58230000
    32  H          0.56170000       0.81930000       0.91770000
    33  H          0.73310000       0.97430000       0.44670000
    34  H          0.23310000       0.47430000       0.05330000
    35  H          0.23310000       0.02570000       0.55330000
    36  H          0.73310000       0.52570000       0.94670000
    37  H          0.82710000       0.63780000       0.59720000
    38  H          0.32710000       0.13780000       0.90280000
    39  H          0.32710000       0.36220000       0.40280000
    40  H          0.82710000       0.86220000       0.09720000
    41  H          0.85370000       0.84960000       0.55870000
    42  H          0.35370000       0.34960000       0.94130000
    43  H          0.35370000       0.15040000       0.44130000
    44  H          0.85370000       0.65040000       0.05870000
    45  H          0.68050000       0.55150000       0.52870000
    46  H          0.18050000       0.05150000       0.97130000
    47  H          0.18050000       0.44850000       0.47130000
    48  H          0.68050000       0.94850000       0.02870000
    49  S          0.98589900       0.00350100       0.76057100
    50  S          0.48589900       0.50350100       0.73942900
    51  S          0.48589900      -0.00350100       0.23942900
    52  S          0.98589900       0.49649900       0.26057100
    53  N          0.85187000       0.13115000       0.62035000
    54  N          0.35187000       0.63115000       0.87965000
    55  N          0.35187000       0.86885000       0.37965000
    56  N          0.85187000       0.36885000       0.12035000
    57  N          0.84367000       0.11775000       0.89405000
    58  N          0.34367000       0.61775000       0.60595000
    59  N          0.34367000       0.88225000       0.10595000
    60  N          0.84367000       0.38225000       0.39405000
    61  C          0.88556000       0.08996000       0.75816000
    62  C          0.38556000       0.58996000       0.74184000
    63  C          0.38556000       0.91004000       0.24184000
    64  C          0.88556000       0.41004000       0.25816000
    65  H          0.79440000       0.18120000       0.62110000
    66  H          0.29440000       0.68120000       0.87890000
    67  H          0.29440000       0.81880000       0.37890000
    68  H          0.79440000       0.31880000       0.12110000
    69  H          0.88460000       0.11260000       0.51740000
    70  H          0.38460000       0.61260000       0.98260000
    71  H          0.38460000       0.88740000       0.48260000
    72  H          0.88460000       0.38740000       0.01740000
    73  H          0.78580000       0.16740000       0.89410000
    74  H          0.28580000       0.66740000       0.60590000
    75  H          0.28580000       0.83260000       0.10590000
    76  H          0.78580000       0.33260000       0.39410000
    77  H          0.86950000       0.08790000       0.00030000
    78  H          0.36950000       0.58790000       0.49970000
    79  H          0.36950000       0.91210000      -0.00030000
    80  H          0.86950000       0.41210000       0.50030000
    81  S          0.93499900       0.44790100       0.76044100
    82  S          0.43499900       0.94790100       0.73955900
    83  S          0.43499900       0.55209900       0.23955900
    84  S          0.93499900       0.05209900       0.26044100
    85  N          0.04453000       0.61225000       0.62165000
    86  N          0.54453000       0.11225000       0.87835000
    87  N          0.54453000       0.38775000       0.37835000
    88  N          0.04453000       0.88775000       0.12165000
    89  N          0.04813000       0.60955000       0.89675000
    90  N          0.54813000       0.10955000       0.60325000
    91  N          0.54813000       0.39045000       0.10325000
    92  N          0.04813000       0.89045000       0.39675000
    93  C          0.01314000       0.56356000       0.75956000
    94  C          0.51314000       0.06356000       0.74044000
    95  C          0.51314000       0.43644000       0.24044000
    96  C          0.01314000       0.93644000       0.25956000
    97  H          0.08440000       0.69250000       0.63110000
    98  H          0.58440000       0.19250000       0.86890000
    99  H          0.58440000       0.30750000       0.36890000
   100  H          0.08440000       0.80750000       0.13110000
   101  H          0.08310000       0.68860000       0.87070000
   102  H          0.58310000       0.18860000       0.62930000
   103  H          0.58310000       0.31140000       0.12930000
   104  H          0.08310000       0.81140000       0.37070000
   105  H          0.02130000       0.58920000       0.52610000
   106  H          0.52130000       0.08920000       0.97390000
   107  H          0.52130000       0.41080000       0.47390000
   108  H          0.02130000       0.91080000       0.02610000
   109  H          0.04080000       0.57230000       0.00620000
   110  H          0.54080000       0.07230000       0.49380000
   111  H          0.54080000       0.42770000      -0.00620000
   112  H          0.04080000       0.92770000       0.50620000
   113  Br         0.19050100       0.83351400       0.75636700
   114  Br         0.69050100       0.33351400       0.74363300
   115  Br         0.69050100       0.16648600       0.24363300
   116  Br         0.19050100       0.66648600       0.25636700
