data_TURPYB04
_symmetry_space_group_name_H-M    'P1'
_symmetry_Int_Tables_number       1
loop_
_symmetry_equiv_pos_site_id
_symmetry_equiv_pos_as_xyz
1 x,y,z
_cell_length_a                   14.33239
_cell_length_b                   10.96176
_cell_length_c                   8.28085
_cell_angle_alpha                90.0
_cell_angle_beta                 90.0
_cell_angle_gamma                90.0
loop_
_atom_site_label
_atom_site_type_symbol
_atom_site_fract_x
_atom_site_fract_y
_atom_site_fract_z
     1  Br         0.79597400       0.16636300       0.24320500
     2  Br         0.29597400       0.83363700       0.75679500
     3  Br         0.79597400       0.33363700       0.74320500
     4  Br         0.29597400       0.66636300       0.25679500
     5  S          0.54034900       0.55398110       0.23857130
     6  S          0.04034900       0.44601890       0.76142870
     7  S          0.54034900       0.94601890       0.73857130
     8  S          0.04034900       0.05398110       0.26142870
     9  N          0.64903000       0.39004000       0.37675000
    10  N          0.14903000       0.60996000       0.62325000
    11  N          0.64903000       0.10996000       0.87675000
    12  N          0.14903000       0.89004000       0.12325000
    13  H          0.68890000       0.32900000       0.37510000
    14  H          0.18890000       0.67100000       0.62490000
    15  H          0.68890000       0.17100000       0.87510000
    16  H          0.18890000       0.82900000       0.12490000
    17  H          0.62850000       0.41850000       0.46960000
    18  H          0.12850000       0.58150000       0.53040000
    19  H          0.62850000       0.08150000       0.96960000
    20  H          0.12850000       0.91850000       0.03040000
    21  N          0.65303000       0.39264000       0.10295000
    22  N          0.15303000       0.60736000       0.89705000
    23  N          0.65303000       0.10736000       0.60295000
    24  N          0.15303000       0.89264000       0.39705000
    25  H          0.69280000       0.33150000       0.10610000
    26  H          0.19280000       0.66850000       0.89390000
    27  H          0.69280000       0.16850000       0.60610000
    28  H          0.19280000       0.83150000       0.39390000
    29  H          0.63520000       0.42270000       0.00940000
    30  H          0.13520000       0.57730000      -0.00940000
    31  H          0.63520000       0.07730000       0.50940000
    32  H          0.13520000       0.92270000       0.49060000
    33  C          0.61984000       0.43915000       0.23925000
    34  C          0.11984000       0.56085000       0.76075000
    35  C          0.61984000       0.06085000       0.73925000
    36  C          0.11984000       0.93915000       0.26075000
    37  S          0.09212900       0.49483110       0.26173120
    38  S          0.59212900       0.50516890       0.73826880
    39  S          0.09212900       0.00516890       0.76173120
    40  S          0.59212900      -0.00516890       0.23826880
    41  N          0.94733000       0.38254000       0.39625000
    42  N          0.44733000       0.61746000       0.60375000
    43  N          0.94733000       0.11746000       0.89625000
    44  N          0.44733000       0.88254000       0.10375000
    45  H          0.89520000       0.34000000       0.39470000
    46  H          0.39520000       0.66000000       0.60530000
    47  H          0.89520000       0.16000000       0.89470000
    48  H          0.39520000       0.84000000       0.10530000
    49  H          0.97040000       0.40810000       0.48870000
    50  H          0.47040000       0.59190000       0.51130000
    51  H          0.97040000       0.09190000      -0.01130000
    52  H          0.47040000       0.90810000       0.01130000
    53  N          0.95633000       0.36914000       0.12055000
    54  N          0.45633000       0.63086000       0.87945000
    55  N          0.95633000       0.13086000       0.62055000
    56  N          0.45633000       0.86914000       0.37945000
    57  H          0.90420000       0.32670000       0.11990000
    58  H          0.40420000       0.67330000       0.88010000
    59  H          0.90420000       0.17330000       0.61990000
    60  H          0.40420000       0.82670000       0.38010000
    61  H          0.98500000       0.38560000       0.02900000
    62  H          0.48500000       0.61440000       0.97100000
    63  H          0.98500000       0.11440000       0.52900000
    64  H          0.48500000       0.88560000       0.47100000
    65  C         -0.00856000       0.40804000       0.25835000
    66  C          0.49144000       0.59196000       0.74165000
    67  C         -0.00856000       0.09196000       0.75835000
    68  C          0.49144000       0.90804000       0.24165000
    69  N          0.74763000       0.66584000       0.92465000
    70  N          0.24763000       0.33416000       0.07535000
    71  N          0.74763000       0.83416000       0.42465000
    72  N          0.24763000       0.16584000       0.57535000
    73  C          0.82864000       0.61635000       0.96534000
    74  C          0.32864000       0.38365000       0.03466000
    75  C          0.82864000       0.88365000       0.46534000
    76  C          0.32864000       0.11635000       0.53466000
    77  H          0.83840000       0.53160000       0.94740000
    78  H          0.33840000       0.46840000       0.05260000
    79  H          0.83840000       0.96840000       0.44740000
    80  H          0.33840000       0.03160000       0.55260000
    81  C          0.89884000       0.68495000       0.03315000
    82  C          0.39884000       0.31505000       0.96685000
    83  C          0.89884000       0.81505000       0.53315000
    84  C          0.39884000       0.18495000       0.46685000
    85  H          0.95660000       0.64880000       0.06290000
    86  H          0.45660000       0.35120000       0.93710000
    87  H          0.95660000       0.85120000       0.56290000
    88  H          0.45660000       0.14880000       0.43710000
    89  C          0.88254000       0.80905000       0.05675000
    90  C          0.38254000       0.19095000       0.94325000
    91  C          0.88254000       0.69095000       0.55675000
    92  C          0.38254000       0.30905000       0.44325000
    93  H          0.93000000       0.85870000       0.10240000
    94  H          0.43000000       0.14130000       0.89760000
    95  H          0.93000000       0.64130000       0.60240000
    96  H          0.43000000       0.35870000       0.39760000
    97  C          0.79955000       0.85964000       0.01525000
    98  C          0.29955000       0.14036000      -0.01525000
    99  C          0.79955000       0.64036000       0.51525000
   100  C          0.29955000       0.35964000       0.48475000
   101  H          0.78850000       0.94420000       0.03150000
   102  H          0.28850000       0.05580000       0.96850000
   103  H          0.78850000       0.55580000       0.53150000
   104  H          0.28850000       0.44420000       0.46850000
   105  C          0.73074000       0.78575000       0.94835000
   106  C          0.23074000       0.21425000       0.05165000
   107  C          0.73074000       0.71425000       0.44835000
   108  C          0.23074000       0.28575000       0.55165000
   109  H          0.67200000       0.81940000       0.91960000
   110  H          0.17200000       0.18060000       0.08040000
   111  H          0.67200000       0.68060000       0.41960000
   112  H          0.17200000       0.31940000       0.58040000
