data_TURQOM
_symmetry_space_group_name_H-M    'P1'
_symmetry_Int_Tables_number       1
loop_
_symmetry_equiv_pos_site_id
_symmetry_equiv_pos_as_xyz
1 x,y,z
_cell_length_a                   9.813201
_cell_length_b                   10.26753
_cell_length_c                   11.38863
_cell_angle_alpha                104.8182
_cell_angle_beta                 107.45101
_cell_angle_gamma                101.1222
loop_
_atom_site_label
_atom_site_type_symbol
_atom_site_fract_x
_atom_site_fract_y
_atom_site_fract_z
     1  C          0.20823000       0.00953000       0.16983000
     2  C          0.79177000      -0.00953000       0.83017000
     3  O          0.24172000       0.00852000       0.06792000
     4  O          0.75828000      -0.00852000       0.93208000
     5  C          0.29823000       0.01613000       0.29733000
     6  C          0.70177000      -0.01613000       0.70267000
     7  O          0.42922000       0.02262000       0.35372000
     8  O          0.57078000       0.97738000       0.64628000
     9  C          0.16463000       0.01293000       0.33483000
    10  C          0.83537000      -0.01293000       0.66517000
    11  O          0.13642000       0.01613000       0.43202000
    12  O          0.86358000      -0.01613000       0.56798000
    13  C          0.07863000       0.00503000       0.20063000
    14  C          0.92137000      -0.00503000       0.79937000
    15  O          0.94628000      -0.00152000       0.14252000
    16  O          0.05372000       0.00152000       0.85748000
    17  H          0.15764500       0.00173800      -0.01303900
    18  H          0.84235500      -0.00173800       0.01303900
    19  C          0.90257000       0.66673000       0.23352000
    20  C          0.09743000       0.33327000       0.76648000
    21  O          0.82808000       0.66972000       0.30682000
    22  O          0.17192000       0.33028000       0.69318000
    23  C          0.05803000       0.66983000       0.24573000
    24  C          0.94197000       0.33017000       0.75427000
    25  O          0.17192000       0.67442000       0.32932000
    26  O          0.82808000       0.32558000       0.67068000
    27  C          0.01423000       0.66393000       0.10702000
    28  C         -0.01423000       0.33607000       0.89298000
    29  O          0.08192000       0.66292000       0.03102000
    30  O          0.91808000       0.33708000       0.96898000
    31  C          0.86617000       0.65973000       0.10322000
    32  C          0.13383000       0.34027000       0.89678000
    33  O          0.74008000       0.65182000       0.01772000
    34  O          0.25992000       0.34818000       0.98228000
    35  H          0.73696000       0.64053500       0.93396300
    36  H          0.26304000       0.35946500       0.06603700
    37  C          0.71927000       0.64723000       0.57483000
    38  C          0.28073000       0.35277000       0.42517000
    39  O          0.60858000       0.65062000       0.49312000
    40  O          0.39142000       0.34938000       0.50688000
    41  C          0.87627000       0.65333000       0.58973000
    42  C          0.12373000       0.34667000       0.41027000
    43  O          0.95598000       0.66262000       0.52092000
    44  O          0.04402000       0.33738000       0.47908000
    45  C          0.90797000       0.64863000       0.71572000
    46  C          0.09203000       0.35137000       0.28428000
    47  O          0.03302000       0.65382000       0.80082000
    48  O          0.96698000       0.34618000       0.19918000
    49  C          0.75837000       0.64073000       0.70973000
    50  C          0.24163000       0.35927000       0.29027000
    51  O          0.69018000       0.63612000       0.78402000
    52  O          0.30982000       0.36388000       0.21598000
    53  H          0.89086200       0.66123300       0.41923600
    54  H          0.10913800       0.33876700       0.58076400
    55  H          0.03893900       0.66133500       0.89113800
    56  H          0.96106100       0.33866500       0.10886200
    57  N          0.44287000       0.20853000       0.69818000
    58  N          0.55713000       0.79147000       0.30182000
    59  C          0.52336000       0.30014000       0.83647000
    60  C          0.47664000       0.69986000       0.16353000
    61  C          0.52856000       0.21783000       0.92857000
    62  C          0.47144000       0.78217000       0.07143000
    63  C          0.60157000       0.31003000       0.07043000
    64  C          0.39843000       0.68997000       0.92957000
    65  C          0.61156000       0.22593000       0.16293000
    66  C          0.38844000       0.77407000       0.83707000
    67  C          0.67546000       0.31614000       0.30333000
    68  C          0.32454000       0.68386000       0.69667000
    69  N          0.69127000       0.22923000       0.39023000
    70  N          0.30873000       0.77077000       0.60977000
    71  H          0.43516200       0.26343500       0.63966700
    72  H          0.56483800       0.73656500       0.36033300
    73  H          0.49066200       0.14333400       0.67317000
    74  H          0.50933800       0.85666600       0.32683000
    75  H          0.34965400       0.15013900       0.68766500
    76  H          0.65034600       0.84986100       0.31233500
    77  H          0.62345700       0.34763500       0.84516700
    78  H          0.37654300       0.65236500       0.15483300
    79  H          0.47236100       0.37123400       0.85076900
    80  H          0.52763900       0.62876600       0.14923100
    81  H          0.57666700       0.14613000       0.90837300
    82  H          0.42333300       0.85387000       0.09162700
    83  H          0.42626000       0.16703100       0.90757100
    84  H          0.57374000       0.83296900       0.09242900
    85  H          0.54606500       0.37893100       0.08742800
    86  H          0.45393500       0.62106900       0.91257200
    87  H          0.70496000       0.36413200       0.08642900
    88  H          0.29504000       0.63586800       0.91357100
    89  H          0.51776700       0.16572700       0.14042500
    90  H          0.48223300       0.83427300       0.85957500
    91  H          0.66916200       0.16163400       0.15103000
    92  H          0.33083800       0.83836600       0.84897000
    93  H          0.77046200       0.37513100       0.32582800
    94  H          0.22953800       0.62486900       0.67417200
    95  H          0.61466300       0.37563100       0.32623000
    96  H          0.38533700       0.62436900       0.67377000
    97  H          0.73666300       0.28223200       0.47993400
    98  H          0.26333700       0.71776800       0.52006600
    99  H          0.60115200       0.17954000       0.38643700
   100  H          0.39884800       0.82046000       0.61356300
   101  H          0.74025800       0.15333800       0.36103600
   102  H          0.25974200       0.84666200       0.63896400
   103  O          0.80897000       0.00432000       0.31863000
   104  O          0.19103000      -0.00432000       0.68137000
   105  H          0.87866000       0.02003300       0.38363300
   106  H          0.12134000       0.97996700       0.61636700
   107  H          0.84294600      -0.00124700       0.24604900
   108  H          0.15705400       0.00124700       0.75395100
