data_TUTFIA
_symmetry_space_group_name_H-M    'P1'
_symmetry_Int_Tables_number       1
loop_
_symmetry_equiv_pos_site_id
_symmetry_equiv_pos_as_xyz
1 x,y,z
_cell_length_a                   17.1444
_cell_length_b                   6.214215
_cell_length_c                   19.3015
_cell_angle_alpha                90.0
_cell_angle_beta                 101.7264
_cell_angle_gamma                90.0
loop_
_atom_site_label
_atom_site_type_symbol
_atom_site_fract_x
_atom_site_fract_y
_atom_site_fract_z
     1  F          0.79561600       0.72153190       0.28268600
     2  F          0.20438400       0.72153190       0.21731400
     3  F          0.29561600       0.22153190       0.28268600
     4  F          0.70438400       0.22153190       0.21731400
     5  F          0.20438400       0.27846810       0.71731400
     6  F          0.79561600       0.27846810       0.78268600
     7  F          0.70438400       0.77846810       0.71731400
     8  F          0.29561600       0.77846810       0.78268600
     9  F          0.91684600       0.71904160       0.21554500
    10  F          0.08315400       0.71904160       0.28445500
    11  F          0.41684600       0.21904160       0.21554500
    12  F          0.58315400       0.21904160       0.28445500
    13  F          0.08315400       0.28095840       0.78445500
    14  F          0.91684600       0.28095840       0.71554500
    15  F          0.58315400       0.78095840       0.78445500
    16  F          0.41684600       0.78095840       0.71554500
    17  F          0.88288700       0.06744170       0.39132600
    18  F          0.11711300       0.06744170       0.10867400
    19  F          0.38288700       0.56744170       0.39132600
    20  F          0.61711300       0.56744170       0.10867400
    21  F          0.11711300       0.93255830       0.60867400
    22  F          0.88288700       0.93255830       0.89132600
    23  F          0.61711300       0.43255830       0.60867400
    24  F          0.38288700       0.43255830       0.89132600
    25  F          0.00624700       0.06807160       0.32703600
    26  F         -0.00624700       0.06807160       0.17296400
    27  F          0.50624700       0.56807160       0.32703600
    28  F          0.49375300       0.56807160       0.17296400
    29  F         -0.00624700       0.93192840       0.67296400
    30  F          0.00624700       0.93192840       0.82703600
    31  F          0.49375300       0.43192840       0.67296400
    32  F          0.50624700       0.43192840       0.82703600
    33  O          0.77559700       0.38692000       0.37283700
    34  O          0.22440300       0.38692000       0.12716300
    35  O          0.27559700       0.88692000       0.37283700
    36  O          0.72440300       0.88692000       0.12716300
    37  O          0.22440300       0.61308000       0.62716300
    38  O          0.77559700       0.61308000       0.87283700
    39  O          0.72440300       0.11308000       0.62716300
    40  O          0.27559700       0.11308000       0.87283700
    41  H          0.75370000       0.50480000       0.37050000
    42  H          0.24630000       0.50480000       0.12950000
    43  H          0.25370000       0.00480000       0.37050000
    44  H          0.74630000       0.00480000       0.12950000
    45  H          0.24630000       0.49520000       0.62950000
    46  H          0.75370000       0.49520000       0.87050000
    47  H          0.74630000      -0.00480000       0.62950000
    48  H          0.25370000      -0.00480000       0.87050000
    49  C          0.84762900       0.55793000       0.29328800
    50  C          0.15237100       0.55793000       0.20671200
    51  C          0.34762900       0.05793000       0.29328800
    52  C          0.65237100       0.05793000       0.20671200
    53  C          0.15237100       0.44207000       0.70671200
    54  C          0.84762900       0.44207000       0.79328800
    55  C          0.65237100       0.94207000       0.70671200
    56  C          0.34762900       0.94207000       0.79328800
    57  C          0.91042900       0.55622000       0.25955800
    58  C          0.08957100       0.55622000       0.24044200
    59  C          0.41042900       0.05622000       0.25955800
    60  C          0.58957100       0.05622000       0.24044200
    61  C          0.08957100       0.44378000       0.74044200
    62  C          0.91042900       0.44378000       0.75955800
    63  C          0.58957100       0.94378000       0.74044200
    64  C          0.41042900       0.94378000       0.75955800
    65  C          0.96597900       0.39282000       0.26836800
    66  C          0.03402100       0.39282000       0.23163200
    67  C          0.46597900       0.89282000       0.26836800
    68  C          0.53402100       0.89282000       0.23163200
    69  C          0.03402100       0.60718000       0.73163200
    70  C          0.96597900       0.60718000       0.76836800
    71  C          0.53402100       0.10718000       0.73163200
    72  C          0.46597900       0.10718000       0.76836800
    73  C          0.95382100       0.23023000       0.31363900
    74  C          0.04617900       0.23023000       0.18636100
    75  C          0.45382100       0.73023000       0.31363900
    76  C          0.54617900       0.73023000       0.18636100
    77  C          0.04617900       0.76977000       0.68636100
    78  C          0.95382100       0.76977000       0.81363900
    79  C          0.54617900       0.26977000       0.68636100
    80  C          0.45382100       0.26977000       0.81363900
    81  C          0.89090100       0.22973000       0.34724800
    82  C          0.10909900       0.22973000       0.15275200
    83  C          0.39090100       0.72973000       0.34724800
    84  C          0.60909900       0.72973000       0.15275200
    85  C          0.10909900       0.77027000       0.65275200
    86  C          0.89090100       0.77027000       0.84724800
    87  C          0.60909900       0.27027000       0.65275200
    88  C          0.39090100       0.27027000       0.84724800
    89  C          0.83646900       0.39403000       0.33811800
    90  C          0.16353100       0.39403000       0.16188200
    91  C          0.33646900       0.89403000       0.33811800
    92  C          0.66353100       0.89403000       0.16188200
    93  C          0.16353100       0.60597000       0.66188200
    94  C          0.83646900       0.60597000       0.83811800
    95  C          0.66353100       0.10597000       0.66188200
    96  C          0.33646900       0.10597000       0.83811800
    97  C          0.67774120       0.90776000       0.42079120
    98  C          0.32225880       0.90776000       0.07920880
    99  C          0.17774120       0.40776000       0.42079120
   100  C          0.82225880       0.40776000       0.07920880
   101  C          0.32225880       0.09224000       0.57920880
   102  C          0.67774120       0.09224000       0.92079120
   103  C          0.82225880       0.59224000       0.57920880
   104  C          0.17774120       0.59224000       0.92079120
   105  C          0.56087110       0.85467000       0.51134100
   106  C          0.43912890       0.85467000       0.98865900
   107  C          0.06087110       0.35467000       0.51134100
   108  C          0.93912890       0.35467000       0.98865900
   109  C          0.43912890       0.14533000       0.48865900
   110  C          0.56087110       0.14533000       0.01134100
   111  C          0.93912890       0.64533000       0.48865900
   112  C          0.06087110       0.64533000       0.01134100
   113  H          0.60200000       0.75440000       0.51910000
   114  H          0.39800000       0.75440000       0.98090000
   115  H          0.10200000       0.25440000       0.51910000
   116  H          0.89800000       0.25440000       0.98090000
   117  H          0.39800000       0.24560000       0.48090000
   118  H          0.60200000       0.24560000       0.01910000
   119  H          0.89800000       0.74560000       0.48090000
   120  H          0.10200000       0.74560000       0.01910000
   121  C          0.56918100       0.04143000       0.47549800
   122  C          0.43081900       0.04143000       0.02450200
   123  C          0.06918100       0.54143000       0.47549800
   124  C          0.93081900       0.54143000       0.02450200
   125  C          0.43081900       0.95857000       0.52450200
   126  C          0.56918100       0.95857000       0.97549800
   127  C          0.93081900       0.45857000       0.52450200
   128  C          0.06918100       0.45857000       0.97549800
   129  C          0.50741110       0.18583000       0.46405900
   130  C          0.49258890       0.18583000       0.03594100
   131  C          0.00741110       0.68583000       0.46405900
   132  C         -0.00741110       0.68583000       0.03594100
   133  C          0.49258890       0.81417000       0.53594100
   134  C          0.50741110       0.81417000       0.96405900
   135  C         -0.00741110       0.31417000       0.53594100
   136  C          0.00741110       0.31417000       0.96405900
   137  H          0.51180000       0.31230000       0.43940000
   138  H          0.48820000       0.31230000       0.06060000
   139  H          0.01180000       0.81230000       0.43940000
   140  H          0.98820000       0.81230000       0.06060000
   141  H          0.48820000       0.68770000       0.56060000
   142  H          0.51180000       0.68770000       0.93940000
   143  H          0.98820000       0.18770000       0.56060000
   144  H          0.01180000       0.18770000       0.93940000
   145  C          0.64553110       0.09263000       0.45107100
   146  C          0.35446890       0.09263000       0.04892900
   147  C          0.14553110       0.59263000       0.45107100
   148  C          0.85446890       0.59263000       0.04892900
   149  C          0.35446890       0.90737000       0.54892900
   150  C          0.64553110       0.90737000       0.95107100
   151  C          0.85446890       0.40737000       0.54892900
   152  C          0.14553110       0.40737000       0.95107100
   153  H          0.63540000       0.20660000       0.41610000
   154  H          0.36460000       0.20660000       0.08390000
   155  H          0.13540000       0.70660000       0.41610000
   156  H          0.86460000       0.70660000       0.08390000
   157  H          0.36460000       0.79340000       0.58390000
   158  H          0.63540000       0.79340000       0.91610000
   159  H          0.86460000       0.29340000       0.58390000
   160  H          0.13540000       0.29340000       0.91610000
   161  H          0.68470000       0.14490000       0.49100000
   162  H          0.31530000       0.14490000       0.00900000
   163  H          0.18470000       0.64490000       0.49100000
   164  H          0.81530000       0.64490000       0.00900000
   165  H          0.31530000       0.85510000       0.50900000
   166  H          0.68470000       0.85510000       0.99100000
   167  H          0.81530000       0.35510000       0.50900000
   168  H          0.18470000       0.35510000       0.99100000
   169  N          0.70065150       0.75916000       0.39812140
   170  N          0.29934850       0.75916000       0.10187860
   171  N          0.20065150       0.25916000       0.39812140
   172  N          0.79934850       0.25916000       0.10187860
   173  N          0.29934850       0.24084000       0.60187860
   174  N          0.70065150       0.24084000       0.89812140
   175  N          0.79934850       0.74084000       0.60187860
   176  N          0.20065150       0.74084000       0.89812140
