data_TUTYEM
_symmetry_space_group_name_H-M    'P1'
_symmetry_Int_Tables_number       1
loop_
_symmetry_equiv_pos_site_id
_symmetry_equiv_pos_as_xyz
1 x,y,z
_cell_length_a                   27.5303
_cell_length_b                   12.7911
_cell_length_c                   7.20496
_cell_angle_alpha                90.0
_cell_angle_beta                 95.0192
_cell_angle_gamma                90.0
loop_
_atom_site_label
_atom_site_type_symbol
_atom_site_fract_x
_atom_site_fract_y
_atom_site_fract_z
     1  Br         0.63110900       0.94859000       0.78342300
     2  Br         0.13110900       0.44859000       0.78342300
     3  Br         0.36889100       0.94859000       0.21657700
     4  Br         0.86889100       0.44859000       0.21657700
     5  S          0.26566700       0.58009000       0.88609000
     6  S          0.76566700       0.08009000       0.88609000
     7  S          0.73433300       0.58009000       0.11391000
     8  S          0.23433300       0.08009000       0.11391000
     9  O          0.22299000       0.56777000      -0.01504000
    10  O          0.72299000       0.06777000      -0.01504000
    11  O          0.77701000       0.56777000       0.01504000
    12  O          0.27701000       0.06777000       0.01504000
    13  O          0.26499000       0.53207000       0.70516000
    14  O          0.76499000       0.03207000       0.70516000
    15  O          0.73501000       0.53207000       0.29484000
    16  O          0.23501000       0.03207000       0.29484000
    17  O          0.39969000       0.76007000       0.76116000
    18  O          0.89969000       0.26007000       0.76116000
    19  O          0.60031000       0.76007000       0.23884000
    20  O          0.10031000       0.26007000       0.23884000
    21  O          0.43979000       0.60427000       0.76205000
    22  O          0.93979000       0.10427000       0.76205000
    23  O          0.56021000       0.60427000       0.23795000
    24  O          0.06021000       0.10427000       0.23795000
    25  N          0.35959000       0.70157000       0.82045000
    26  N          0.85959000       0.20157000       0.82045000
    27  N          0.64041000       0.70157000       0.17955000
    28  N          0.14041000       0.20157000       0.17955000
    29  C          0.44079000       0.69706000       0.75724000
    30  C          0.94079000       0.19706000       0.75724000
    31  C          0.55921000       0.69706000       0.24276000
    32  C          0.05921000       0.19706000       0.24276000
    33  C          0.32459000       0.57366000       0.21466000
    34  C          0.82459000       0.07366000       0.21466000
    35  C          0.67541000       0.57366000       0.78534000
    36  C          0.17541000       0.07366000       0.78534000
    37  C          0.57139000       0.87266000       0.76524000
    38  C          0.07139000       0.37266000       0.76524000
    39  C          0.42861000       0.87266000       0.23476000
    40  C          0.92861000       0.37266000       0.23476000
    41  C          0.38829000       0.42777000       0.08786000
    42  C          0.88829000       0.92777000       0.08786000
    43  C          0.61171000       0.42777000       0.91214000
    44  C          0.11171000       0.92777000       0.91214000
    45  C          0.32139000       0.75657000       0.79534000
    46  C          0.82139000       0.25657000       0.79534000
    47  C          0.67861000       0.75657000       0.20466000
    48  C          0.17861000       0.25657000       0.20466000
    49  C          0.24338000       0.79406000       0.94894000
    50  C          0.74338000       0.29406000       0.94894000
    51  C          0.75662000       0.79406000       0.05106000
    52  C          0.25662000       0.29406000       0.05106000
    53  C          0.23348000       0.78176000       0.74474000
    54  C          0.73348000       0.28176000       0.74474000
    55  C          0.76652000       0.78176000       0.25526000
    56  C          0.26652000       0.28176000       0.25526000
    57  C          0.31679000       0.53397000       0.03286000
    58  C          0.81679000       0.03397000       0.03286000
    59  C          0.68321000       0.53397000       0.96714000
    60  C          0.18321000       0.03397000       0.96714000
    61  C          0.52748000       0.92556000       0.74522000
    62  C          0.02748000       0.42556000       0.74522000
    63  C          0.47252000       0.92556000       0.25478000
    64  C          0.97252000       0.42556000       0.25478000
    65  C          0.27419000       0.71577000       0.85215000
    66  C          0.77419000       0.21577000       0.85215000
    67  C          0.72581000       0.71577000       0.14785000
    68  C          0.22581000       0.21577000       0.14785000
    69  C          0.36468000       0.53856000       0.32617000
    70  C          0.86468000       0.03856000       0.32617000
    71  C          0.63532000       0.53856000       0.67383000
    72  C          0.13532000       0.03856000       0.67383000
    73  C          0.34959000       0.45966000       0.96575000
    74  C          0.84959000       0.95966000       0.96575000
    75  C          0.65041000       0.45966000       0.03425000
    76  C          0.15041000       0.95966000       0.03425000
    77  C          0.31308000       0.86156000       0.70543000
    78  C          0.81308000       0.36156000       0.70543000
    79  C          0.68692000       0.86156000       0.29457000
    80  C          0.18692000       0.36156000       0.29457000
    81  C          0.57328000       0.76486000       0.77353000
    82  C          0.07328000       0.26486000       0.77353000
    83  C          0.42672000       0.76486000       0.22647000
    84  C          0.92672000       0.26486000       0.22647000
    85  C          0.18658000       0.73526000       0.66132000
    86  C          0.68658000       0.23526000       0.66132000
    87  C          0.81342000       0.73526000       0.33868000
    88  C          0.31342000       0.23526000       0.33868000
    89  C          0.48458000       0.86966000       0.74053000
    90  C          0.98458000       0.36966000       0.74053000
    91  C          0.51542000       0.86966000       0.25947000
    92  C          0.01542000       0.36966000       0.25947000
    93  C          0.39689000       0.46586000       0.26636000
    94  C          0.89689000       0.96586000       0.26636000
    95  C          0.60311000       0.46586000       0.73364000
    96  C          0.10311000       0.96586000       0.73364000
    97  C          0.53008000       0.71016000       0.76474000
    98  C          0.03008000       0.21016000       0.76474000
    99  C          0.46992000       0.71016000       0.23526000
   100  C          0.96992000       0.21016000       0.23526000
   101  C          0.25928000       0.85946000       0.62763000
   102  C          0.75928000       0.35946000       0.62763000
   103  C          0.74072000       0.85946000       0.37237000
   104  C          0.24072000       0.35946000       0.37237000
   105  C          0.34558000       0.41276000       0.77253000
   106  C          0.84558000       0.91276000       0.77253000
   107  C          0.65442000       0.41276000       0.22747000
   108  C          0.15442000       0.91276000       0.22747000
   109  C          0.48559000       0.76206000       0.75124000
   110  C          0.98559000       0.26206000       0.75124000
   111  C          0.51441000       0.76206000       0.24876000
   112  C          0.01441000       0.26206000       0.24876000
   113  C          0.43998000       0.42945000       0.39139000
   114  C          0.93998000       0.92945000       0.39139000
   115  C          0.56002000       0.42945000       0.60861000
   116  C          0.06002000       0.92945000       0.60861000
   117  C          0.29258000       0.65366000       0.29666000
   118  C          0.79258000       0.15366000       0.29666000
   119  C          0.70742000       0.65366000       0.70334000
   120  C          0.20742000       0.15366000       0.70334000
   121  H          0.45480000       0.91560000       0.72430000
   122  H          0.95480000       0.41560000       0.72430000
   123  H          0.54520000       0.91560000       0.27570000
   124  H          0.04520000       0.41560000       0.27570000
   125  H          0.52680000      -0.00940000       0.73630000
   126  H          0.02680000       0.49060000       0.73630000
   127  H          0.47320000      -0.00940000       0.26370000
   128  H          0.97320000       0.49060000       0.26370000
   129  H          0.53190000       0.63070000       0.78150000
   130  H          0.03190000       0.13070000       0.78150000
   131  H          0.46810000       0.63070000       0.21850000
   132  H          0.96810000       0.13070000       0.21850000
   133  H          0.60380000       0.72660000       0.79830000
   134  H          0.10380000       0.22660000       0.79830000
   135  H          0.39620000       0.72660000       0.20170000
   136  H          0.89620000       0.22660000       0.20170000
   137  H          0.41080000       0.38460000       0.05170000
   138  H          0.91080000       0.88460000       0.05170000
   139  H          0.58920000       0.38460000       0.94830000
   140  H          0.08920000       0.88460000       0.94830000
   141  H          0.37280000       0.56260000       0.43160000
   142  H          0.87280000       0.06260000       0.43160000
   143  H          0.62720000       0.56260000       0.56840000
   144  H          0.12720000       0.06260000       0.56840000
   145  H          0.31580000       0.37560000       0.73330000
   146  H          0.81580000       0.87560000       0.73330000
   147  H          0.68420000       0.37560000       0.26670000
   148  H          0.18420000       0.87560000       0.26670000
   149  H          0.34680000       0.45650000       0.67130000
   150  H          0.84680000       0.95650000       0.67130000
   151  H          0.65320000       0.45650000       0.32870000
   152  H          0.15320000       0.95650000       0.32870000
   153  H          0.37080000       0.37560000       0.75630000
   154  H          0.87080000       0.87560000       0.75630000
   155  H          0.62920000       0.37560000       0.24370000
   156  H          0.12920000       0.87560000       0.24370000
   157  H          0.33280000       0.86460000       0.59430000
   158  H          0.83280000       0.36460000       0.59430000
   159  H          0.66720000       0.86460000       0.40570000
   160  H          0.16720000       0.36460000       0.40570000
   161  H          0.31780000       0.91370000       0.78940000
   162  H          0.81780000       0.41370000       0.78940000
   163  H          0.68220000       0.91370000       0.21060000
   164  H          0.18220000       0.41370000       0.21060000
   165  H          0.24590000       0.92170000       0.63050000
   166  H          0.74590000       0.42170000       0.63050000
   167  H          0.75410000       0.92170000       0.36950000
   168  H          0.25410000       0.42170000       0.36950000
   169  H          0.25780000       0.83770000       0.50030000
   170  H          0.75780000       0.33770000       0.50030000
   171  H          0.74220000       0.83770000       0.49970000
   172  H          0.24220000       0.33770000       0.49970000
   173  H          0.16380000       0.78750000       0.62420000
   174  H          0.66380000       0.28750000       0.62420000
   175  H          0.83620000       0.78750000       0.37580000
   176  H          0.33620000       0.28750000       0.37580000
   177  H          0.18980000       0.70060000       0.53320000
   178  H          0.68980000       0.20060000       0.53320000
   179  H          0.81020000       0.70060000       0.46680000
   180  H          0.31020000       0.20060000       0.46680000
   181  H          0.17080000       0.69850000       0.75420000
   182  H          0.67080000       0.19850000       0.75420000
   183  H          0.82920000       0.69850000       0.24580000
   184  H          0.32920000       0.19850000       0.24580000
   185  H          0.26180000       0.85260000       0.97630000
   186  H          0.76180000       0.35260000       0.97630000
   187  H          0.73820000       0.85260000       0.02370000
   188  H          0.23820000       0.35260000       0.02370000
   189  H          0.22180000       0.75860000       0.02680000
   190  H          0.72180000       0.25860000       0.02680000
   191  H          0.77820000       0.75860000       0.97320000
   192  H          0.27820000       0.25860000       0.97320000
   193  H          0.44480000       0.47760000       0.52170000
   194  H          0.94480000       0.97760000       0.52170000
   195  H          0.55520000       0.47760000       0.47830000
   196  H          0.05520000       0.97760000       0.47830000
   197  H          0.46680000       0.42850000       0.33670000
   198  H          0.96680000       0.92850000       0.33670000
   199  H          0.53320000       0.42850000       0.66330000
   200  H          0.03320000       0.92850000       0.66330000
   201  H          0.44180000       0.36650000       0.42580000
   202  H          0.94180000       0.86650000       0.42580000
   203  H          0.55820000       0.36650000       0.57420000
   204  H          0.05820000       0.86650000       0.57420000
   205  H          0.29780000       0.72060000       0.25670000
   206  H          0.79780000       0.22060000       0.25670000
   207  H          0.70220000       0.72060000       0.74330000
   208  H          0.20220000       0.22060000       0.74330000
   209  H          0.29880000       0.65650000       0.41890000
   210  H          0.79880000       0.15650000       0.41890000
   211  H          0.70120000       0.65650000       0.58110000
   212  H          0.20120000       0.15650000       0.58110000
   213  H          0.25680000       0.63670000       0.26950000
   214  H          0.75680000       0.13670000       0.26950000
   215  H          0.74320000       0.63670000       0.73050000
   216  H          0.24320000       0.13670000       0.73050000
   217  C          0.48486000       0.22207000       0.89190000
   218  C          0.98486000       0.72207000       0.89190000
   219  C          0.51514000       0.22207000       0.10810000
   220  C          0.01514000       0.72207000       0.10810000
   221  C          0.44666000       0.14407000       0.87780000
   222  C          0.94666000       0.64407000       0.87780000
   223  C          0.55334000       0.14407000       0.12220000
   224  C          0.05334000       0.64407000       0.12220000
   225  C          0.42526000       0.13687000       0.67680000
   226  C          0.92526000       0.63687000       0.67680000
   227  C          0.57474000       0.13687000       0.32320000
   228  C          0.07474000       0.63687000       0.32320000
   229  H          0.40926000       0.20077000       0.64280000
   230  H          0.90926000       0.70077000       0.64280000
   231  H          0.59074000       0.20077000       0.35720000
   232  H          0.09074000       0.70077000       0.35720000
   233  H          0.45096000       0.12547000       0.59880000
   234  H          0.95096000       0.62547000       0.59880000
   235  H          0.54904000       0.12547000       0.40120000
   236  H          0.04904000       0.62547000       0.40120000
   237  H          0.40256000       0.08097000       0.66180000
   238  H          0.90256000       0.58097000       0.66180000
   239  H          0.59744000       0.08097000       0.33820000
   240  H          0.09744000       0.58097000       0.33820000
   241  H          0.50736000       0.20717000       0.80290000
   242  H          0.00736000       0.70717000       0.80290000
   243  H          0.49264000       0.20717000       0.19710000
   244  H          0.99264000       0.70717000       0.19710000
   245  H          0.47066000       0.28887000       0.86690000
   246  H          0.97066000       0.78887000       0.86690000
   247  H          0.52934000       0.28887000       0.13310000
   248  H          0.02934000       0.78887000       0.13310000
   249  H          0.45996000       0.07827000       0.91680000
   250  H          0.95996000       0.57827000       0.91680000
   251  H          0.54004000       0.07827000       0.08320000
   252  H          0.04004000       0.57827000       0.08320000
   253  H          0.42186000       0.16297000       0.95580000
   254  H          0.92186000       0.66297000       0.95580000
   255  H          0.57814000       0.16297000       0.04420000
   256  H          0.07814000       0.66297000       0.04420000
