data_TUVNIJ
_symmetry_space_group_name_H-M    'P1'
_symmetry_Int_Tables_number       1
loop_
_symmetry_equiv_pos_site_id
_symmetry_equiv_pos_as_xyz
1 x,y,z
_cell_length_a                   7.60938
_cell_length_b                   18.208618
_cell_length_c                   17.284117
_cell_angle_alpha                90.0
_cell_angle_beta                 90.0
_cell_angle_gamma                90.0
loop_
_atom_site_label
_atom_site_type_symbol
_atom_site_fract_x
_atom_site_fract_y
_atom_site_fract_z
     1  O          0.15433000       0.65533140       0.56864150
     2  O          0.84567000       0.34466860       0.06864150
     3  O          0.34567000       0.65533140       0.06864150
     4  O          0.65433000       0.34466860       0.56864150
     5  O          0.82054000       0.52468150       0.28409150
     6  O          0.17946000       0.47531850       0.78409150
     7  O          0.67946000       0.52468150       0.78409150
     8  O          0.32054000       0.47531850       0.28409150
     9  O          0.17444000       0.56882140       0.65237170
    10  O          0.82556000       0.43117860       0.15237170
    11  O          0.32556000       0.56882140       0.15237170
    12  O          0.67444000       0.43117860       0.65237170
    13  N          0.89934000       0.40038170       0.35602000
    14  N          0.10066000       0.59961830       0.85602000
    15  N          0.60066000       0.40038170       0.85602000
    16  N          0.39934000       0.59961830       0.35602000
    17  N          0.13634000       0.59071190       0.58728190
    18  N          0.86366000       0.40928810       0.08728190
    19  N          0.36366000       0.59071190       0.08728190
    20  N          0.63634000       0.40928810       0.58728190
    21  O          0.88544000       0.62819150       0.33517160
    22  O          0.11456000       0.37180850       0.83517160
    23  O          0.61456000       0.62819150       0.83517160
    24  O          0.38544000       0.37180850       0.33517160
    25  N          0.10705000       0.43060170       0.61302000
    26  N          0.89295000       0.56939830       0.11302000
    27  N          0.39295000       0.43060170       0.11302000
    28  N          0.60705000       0.56939830       0.61302000
    29  O          0.07955000       0.07408150       0.61702000
    30  O          0.92045000       0.92591850       0.11702000
    31  O          0.42045000       0.07408150       0.11702000
    32  O          0.57955000       0.92591850       0.61702000
    33  C          0.95205000       0.44594170       0.41272000
    34  C          0.04795000       0.55405830       0.91272000
    35  C          0.54795000       0.44594170       0.91272000
    36  C          0.45205000       0.55405830       0.41272000
    37  O          0.76774000       0.05739180       0.14180180
    38  O          0.23226000       0.94260820       0.64180180
    39  O          0.73226000       0.05739180       0.64180180
    40  O          0.26774000       0.94260820       0.14180180
    41  C          0.01055000       0.41831180       0.48290190
    42  C         -0.01055000       0.58168820       0.98290190
    43  C          0.48945000       0.41831180       0.98290190
    44  C          0.51055000       0.58168820       0.48290190
    45  H          0.01380000       0.36760000       0.48880000
    46  H         -0.01380000       0.63240000       0.98880000
    47  H          0.48620000       0.36760000       0.98880000
    48  H          0.51380000       0.63240000       0.48880000
    49  N          0.88335000       0.56090180       0.33761170
    50  N          0.11665000       0.43909820       0.83761170
    51  N          0.61665000       0.56090180       0.83761170
    52  N          0.38335000       0.43909820       0.33761170
    53  C          0.94955000       0.52383170       0.40478190
    54  C          0.05045000       0.47616830       0.90478190
    55  C          0.55045000       0.52383170       0.90478190
    56  C          0.44955000       0.47616830       0.40478190
    57  C          0.88865000       0.20496190       0.28182000
    58  C          0.11135000       0.79503810       0.78182000
    59  C          0.61135000       0.20496190       0.78182000
    60  C          0.38865000       0.79503810       0.28182000
    61  H          0.84280000       0.18140000       0.32790000
    62  H          0.15720000       0.81860000       0.82790000
    63  H          0.65720000       0.18140000       0.82790000
    64  H          0.34280000       0.81860000       0.32790000
    65  H          0.01500000       0.19800000       0.28130000
    66  H         -0.01500000       0.80200000       0.78130000
    67  H          0.48500000       0.19800000       0.78130000
    68  H          0.51500000       0.80200000       0.28130000
    69  C          0.08645000       0.35202000       0.63142000
    70  C          0.91355000       0.64798000       0.13142000
    71  C          0.41355000       0.35202000       0.13142000
    72  C          0.58645000       0.64798000       0.63142000
    73  H         -0.01660000       0.33300000       0.60500000
    74  H          0.01660000       0.66700000       0.10500000
    75  H          0.51660000       0.33300000       0.10500000
    76  H          0.48340000       0.66700000       0.60500000
    77  H          0.06810000       0.34640000       0.68660000
    78  H          0.93190000       0.65360000       0.18660000
    79  H          0.43190000       0.34640000       0.18660000
    80  H          0.56810000       0.65360000       0.68660000
    81  C          0.07195000       0.53885180       0.53146180
    82  C          0.92805000       0.46114820       0.03146180
    83  C          0.42805000       0.53885180       0.03146180
    84  C          0.57195000       0.46114820       0.53146180
    85  C          0.01265000       0.56718190       0.46322000
    86  C         -0.01265000       0.43281810       0.96322000
    87  C          0.48735000       0.56718190       0.96322000
    88  C          0.51265000       0.43281810       0.46322000
    89  H          0.01530000       0.61780000       0.45610000
    90  H         -0.01530000       0.38220000       0.95610000
    91  H          0.48470000       0.61780000       0.95610000
    92  H          0.51530000       0.38220000       0.45610000
    93  C          0.91845000       0.32076180       0.35896190
    94  C          0.08155000       0.67923820       0.85896190
    95  C          0.58155000       0.32076180       0.85896190
    96  C          0.41845000       0.67923820       0.35896190
    97  H          0.85430000       0.30170000       0.40310000
    98  H          0.14570000       0.69830000       0.90310000
    99  H          0.64570000       0.30170000       0.90310000
   100  H          0.35430000       0.69830000       0.40310000
   101  H          0.04150000       0.30820000       0.36550000
   102  H          0.95850000       0.69180000       0.86550000
   103  H          0.45850000       0.30820000       0.86550000
   104  H          0.54150000       0.69180000       0.36550000
   105  C          0.06515000       0.46145180       0.54572000
   106  C          0.93485000       0.53854820       0.04572000
   107  C          0.43485000       0.46145180       0.04572000
   108  C          0.56515000       0.53854820       0.54572000
   109  C          0.81055000       0.16813180       0.21132000
   110  C          0.18945000       0.83186820       0.71132000
   111  C          0.68945000       0.16813180       0.71132000
   112  C          0.31055000       0.83186820       0.21132000
   113  H          0.68350000       0.17210000       0.21370000
   114  H          0.31650000       0.82790000       0.71370000
   115  H          0.81650000       0.17210000       0.71370000
   116  H          0.18350000       0.82790000       0.21370000
   117  H          0.84970000       0.19380000       0.16530000
   118  H          0.15030000       0.80620000       0.66530000
   119  H          0.65030000       0.19380000       0.66530000
   120  H          0.34970000       0.80620000       0.16530000
   121  C          0.85996000       0.08912000       0.20482000
   122  C          0.14004000       0.91088000       0.70482000
   123  C          0.64004000       0.08912000       0.70482000
   124  C          0.35996000       0.91088000       0.20482000
   125  H         -0.01450000       0.08470000       0.19660000
   126  H          0.01450000       0.91530000       0.69660000
   127  H          0.51450000       0.08470000       0.69660000
   128  H          0.48550000       0.91530000       0.19660000
   129  H          0.83030000       0.06360000       0.25230000
   130  H          0.16970000       0.93640000       0.75230000
   131  H          0.66970000       0.06360000       0.75230000
   132  H          0.33030000       0.93640000       0.25230000
   133  C          0.84956000       0.28595180       0.28568190
   134  C          0.15044000       0.71404820       0.78568190
   135  C          0.65044000       0.28595180       0.78568190
   136  C          0.34956000       0.71404820       0.28568190
   137  H          0.72340000       0.29330000       0.28290000
   138  H          0.27660000       0.70670000       0.78290000
   139  H          0.77660000       0.29330000       0.78290000
   140  H          0.22340000       0.70670000       0.28290000
   141  H          0.90220000       0.31010000       0.24140000
   142  H          0.09780000       0.68990000       0.74140000
   143  H          0.59780000       0.31010000       0.74140000
   144  H          0.40220000       0.68990000       0.24140000
   145  C          0.09006000       0.19413180       0.55572000
   146  C          0.90994000       0.80586820       0.05572000
   147  C          0.40994000       0.19413180       0.05572000
   148  C          0.59006000       0.80586820       0.55572000
   149  H          0.11010000       0.21760000       0.50610000
   150  H          0.88990000       0.78240000       0.00610000
   151  H          0.38990000       0.21760000       0.00610000
   152  H          0.61010000       0.78240000       0.50610000
   153  H          0.97100000       0.20570000       0.57170000
   154  H          0.02900000       0.79430000       0.07170000
   155  H          0.52900000       0.20570000       0.07170000
   156  H          0.47100000       0.79430000       0.57170000
   157  C          0.24385000       0.30862000       0.60763000
   158  C          0.75615000       0.69138000       0.10763000
   159  C          0.25615000       0.30862000       0.10763000
   160  C          0.74385000       0.69138000       0.60763000
   161  H          0.34250000       0.32240000       0.64000000
   162  H          0.65750000       0.67760000       0.14000000
   163  H          0.15750000       0.32240000       0.14000000
   164  H          0.84250000       0.67760000       0.64000000
   165  H          0.27350000       0.32080000       0.55460000
   166  H          0.72650000       0.67920000       0.05460000
   167  H          0.22650000       0.32080000       0.05460000
   168  H          0.77350000       0.67920000       0.55460000
   169  C          0.21596000       0.22526190       0.61372000
   170  C          0.78404000       0.77473810       0.11372000
   171  C          0.28404000       0.22526190       0.11372000
   172  C          0.71596000       0.77473810       0.61372000
   173  H          0.32860000       0.20100000       0.60750000
   174  H          0.67140000       0.79900000       0.10750000
   175  H          0.17140000       0.20100000       0.10750000
   176  H          0.82860000       0.79900000       0.60750000
   177  H          0.17310000       0.21390000       0.66520000
   178  H          0.82690000       0.78610000       0.16520000
   179  H          0.32690000       0.21390000       0.16520000
   180  H          0.67310000       0.78610000       0.66520000
   181  C          0.10606000       0.11242000       0.54583000
   182  C          0.89394000       0.88758000       0.04583000
   183  C          0.39394000       0.11242000       0.04583000
   184  C          0.60606000       0.88758000       0.54583000
   185  H          0.02000000       0.09580000       0.50820000
   186  H          0.98000000       0.90420000       0.00820000
   187  H          0.48000000       0.09580000       0.00820000
   188  H          0.52000000       0.90420000       0.50820000
   189  H          0.22190000       0.10080000       0.52580000
   190  H          0.77810000       0.89920000       0.02580000
   191  H          0.27810000       0.10080000       0.02580000
   192  H          0.72190000       0.89920000       0.52580000
   193  H          0.80150000       0.02220000       0.13220000
   194  H          0.19850000       0.97780000       0.63220000
   195  H          0.69850000       0.02220000       0.63220000
   196  H          0.30150000       0.97780000       0.13220000
   197  H          0.97650000       0.07120000       0.62020000
   198  H          0.02350000       0.92880000       0.12020000
   199  H          0.52350000       0.07120000       0.12020000
   200  H          0.47650000       0.92880000       0.62020000
   201  H          0.87150000       0.41641900       0.31620000
   202  H          0.12850000       0.58358100       0.81620000
   203  H          0.62850000       0.41641900       0.81620000
   204  H          0.37150000       0.58358100       0.31620000
   205  H          0.13050000       0.45720000       0.64820000
   206  H          0.86950000       0.54280000       0.14820000
   207  H          0.36950000       0.45720000       0.14820000
   208  H          0.63050000       0.54280000       0.64820000
   209  C          0.49548000       0.19923000       0.42364000
   210  C          0.50452000       0.80077000       0.92364000
   211  C          0.00452000       0.19923000       0.92364000
   212  C         -0.00452000       0.80077000       0.42364000
   213  H          0.49100000       0.24800000       0.43940000
   214  H          0.50900000       0.75200000       0.93940000
   215  H          0.00900000       0.24800000       0.93940000
   216  H         -0.00900000       0.75200000       0.43940000
   217  C          0.58647000       0.14914000       0.46543000
   218  C          0.41353000       0.85086000       0.96543000
   219  C          0.91353000       0.14914000       0.96543000
   220  C          0.08647000       0.85086000       0.46543000
   221  H          0.64580000       0.16340000       0.51000000
   222  H          0.35420000       0.83660000       0.01000000
   223  H          0.85420000       0.16340000       0.01000000
   224  H          0.14580000       0.83660000       0.51000000
   225  C          0.41157000       0.17754000       0.35904000
   226  C          0.58843000       0.82246000       0.85904000
   227  C          0.08843000       0.17754000       0.85904000
   228  C          0.91157000       0.82246000       0.35904000
   229  H          0.35040000       0.21200000       0.32980000
   230  H          0.64960000       0.78800000       0.82980000
   231  H          0.14960000       0.21200000       0.82980000
   232  H          0.85040000       0.78800000       0.32980000
   233  C          0.41429000       0.10784000       0.33614000
   234  C          0.58571000       0.89216000       0.83614000
   235  C          0.08571000       0.10784000       0.83614000
   236  C          0.91429000       0.89216000       0.33614000
   237  H          0.35430000       0.09350000       0.29160000
   238  H          0.64570000       0.90650000       0.79160000
   239  H          0.14570000       0.09350000       0.79160000
   240  H          0.85430000       0.90650000       0.29160000
   241  C          0.50439000       0.05803000       0.37784000
   242  C          0.49561000       0.94197000       0.87784000
   243  C         -0.00439000       0.05803000       0.87784000
   244  C          0.00439000       0.94197000       0.37784000
   245  H          0.50650000       0.00930000       0.36180000
   246  H          0.49350000       0.99070000       0.86180000
   247  H         -0.00650000       0.00930000       0.86180000
   248  H          0.00650000       0.99070000       0.36180000
   249  C          0.59078000       0.07763000       0.44194000
   250  C          0.40922000       0.92237000       0.94194000
   251  C          0.90922000       0.07763000       0.94194000
   252  C          0.09078000       0.92237000       0.44194000
   253  H          0.65300000       0.04280000       0.47020000
   254  H          0.34700000       0.95720000       0.97020000
   255  H          0.84700000       0.04280000       0.97020000
   256  H          0.15300000       0.95720000       0.47020000
