data_TUVRUZ
_symmetry_space_group_name_H-M    'P1'
_symmetry_Int_Tables_number       1
loop_
_symmetry_equiv_pos_site_id
_symmetry_equiv_pos_as_xyz
1 x,y,z
_cell_length_a                   8.126701
_cell_length_b                   12.31862
_cell_length_c                   15.83663
_cell_angle_alpha                93.42459
_cell_angle_beta                 100.54319
_cell_angle_gamma                92.72061
loop_
_atom_site_label
_atom_site_type_symbol
_atom_site_fract_x
_atom_site_fract_y
_atom_site_fract_z
     1  O          0.36436120       0.16448700       0.04966600
     2  O          0.63563880       0.83551300       0.95033400
     3  O          0.25198120       0.01872700       0.13955600
     4  O          0.74801880       0.98127300       0.86044400
     5  N          0.47997140       0.38757800       0.39942600
     6  N          0.52002860       0.61242200       0.60057400
     7  H          0.50400000       0.43290000       0.44570000
     8  H          0.49600000       0.56710000       0.55430000
     9  N          0.32795140       0.24405800       0.45547700
    10  N          0.67204860       0.75594200       0.54452300
    11  N          0.39651130       0.40397800       0.56041600
    12  N          0.60348870       0.59602200       0.43958400
    13  N          0.27291140       0.33054800       0.66395700
    14  N          0.72708860       0.66945200       0.33604300
    15  N          0.25719140       0.25962800       0.59323700
    16  N          0.74280860       0.74037200       0.40676300
    17  H          0.20590000       0.19430000       0.58790000
    18  H          0.79410000       0.80570000       0.41210000
    19  N          0.39992130       0.50591800       0.70014600
    20  N          0.60007870       0.49408200       0.29985400
    21  C          0.52340160       0.40858900       0.32043800
    22  C          0.47659840       0.59141100       0.67956200
    23  C          0.46094160       0.31156900       0.26250800
    24  C          0.53905840       0.68843100       0.73749200
    25  C          0.45786160       0.29161100       0.17481800
    26  C          0.54213840       0.70838900       0.82518200
    27  H          0.50600000       0.34320000       0.14280000
    28  H          0.49400000       0.65680000       0.85720000
    29  C          0.38159160       0.19325100       0.13587800
    30  C          0.61840840       0.80674900       0.86412200
    31  C          0.31544160       0.11481900       0.18471800
    32  C          0.68455840       0.88518100       0.81528200
    33  C          0.31495160       0.13699100       0.27160800
    34  C          0.68504840       0.86300900       0.72839200
    35  H          0.26730000       0.08580000       0.30420000
    36  H          0.73270000       0.91420000       0.69580000
    37  C          0.38703160       0.23719900       0.30920800
    38  C          0.61296840       0.76280100       0.69079200
    39  C          0.39483160       0.28720900       0.39637800
    40  C          0.60516840       0.71279100       0.60362200
    41  C          0.33099160       0.30330900       0.53254800
    42  C          0.66900840       0.69669100       0.46745200
    43  C          0.35724150       0.41624900       0.64134700
    44  C          0.64275850       0.58375100       0.35865300
    45  C          0.41670170       0.24429100      -0.00153800
    46  C          0.58329830       0.75570900       0.00153800
    47  C          0.57903170       0.24104110       0.98194200
    48  C          0.42096830       0.75895890       0.01805800
    49  C          0.62758190       0.31758120       0.92812100
    50  C          0.37241810       0.68241880       0.07187900
    51  H          0.73740000       0.31820000       0.91550000
    52  H          0.26260000       0.68180000       0.08450000
    53  C          0.51792000       0.39231120       0.89315100
    54  C          0.48208000       0.60768880       0.10684900
    55  H          0.55240000       0.44330000       0.85620000
    56  H          0.44760000       0.55670000       0.14380000
    57  C          0.35792000       0.39330120       0.91166100
    58  C          0.64208000       0.60669880       0.08833900
    59  H          0.28400000       0.44550000       0.88750000
    60  H          0.71600000       0.55450000       0.11250000
    61  C          0.30345180       0.31883110       0.96526100
    62  C          0.69654820       0.68116890       0.03473900
    63  C          0.69401190       0.15788120       0.02063100
    64  C          0.30598810       0.84211880       0.97936900
    65  H          0.64940000       0.08480000      -0.00310000
    66  H          0.35060000       0.91520000       0.00310000
    67  H          0.70210000       0.16270000       0.08330000
    68  H          0.29790000       0.83730000       0.91670000
    69  H          0.80560000       0.17190000       0.00690000
    70  H          0.19440000       0.82810000      -0.00690000
    71  C          0.13032000       0.31955140       0.98661890
    72  C          0.86968000       0.68044860       0.01338110
    73  H          0.13900000       0.33350000       0.04890000
    74  H          0.86100000       0.66650000       0.95110000
    75  H          0.07040000       0.24870000       0.96810000
    76  H          0.92960000       0.75130000       0.03190000
    77  H          0.06880000       0.37690000       0.95670000
    78  H          0.93120000       0.62310000       0.04330000
    79  C          0.20876160       0.93356100       0.18817800
    80  C          0.79123840       0.06643900       0.81182200
    81  C          0.03884170       0.90909890       0.18553900
    82  C          0.96115830       0.09090110       0.81446100
    83  C         -0.00396190       0.82314890       0.23273900
    84  C          0.00396190       0.17685110       0.76726100
    85  H          0.88120000       0.80360000       0.23190000
    86  H          0.11880000       0.19640000       0.76810000
    87  C          0.11842000       0.76629890       0.28047900
    88  C          0.88158000       0.23370110       0.71952100
    89  H          0.08740000       0.71020000       0.31420000
    90  H          0.91260000       0.28980000       0.68580000
    91  C          0.28632000       0.79069890       0.27946900
    92  C          0.71368000       0.20930110       0.72053100
    93  H          0.36910000       0.74940000       0.31110000
    94  H          0.63090000       0.25060000       0.68890000
    95  C          0.33547170       0.87507890       0.23269900
    96  C          0.66452830       0.12492110       0.76730100
    97  C          0.90904810       0.97412870       0.13435110
    98  C          0.09095190       0.02587130       0.86564890
    99  H          0.92100000       0.04980000       0.15860000
   100  H          0.07900000       0.95020000       0.84140000
   101  H          0.79690000       0.94300000       0.13670000
   102  H          0.20310000       0.05700000       0.86330000
   103  H          0.92460000       0.97210000       0.07440000
   104  H          0.07540000       0.02790000       0.92560000
   105  C          0.51632180       0.90106870       0.22899100
   106  C          0.48367820       0.09893130       0.77100900
   107  H          0.56030000       0.96280000       0.27020000
   108  H          0.43970000       0.03720000       0.72980000
   109  H          0.52570000       0.92000000       0.17070000
   110  H          0.47430000       0.08000000       0.82930000
   111  H          0.58100000       0.83740000       0.24360000
   112  H          0.41900000       0.16260000       0.75640000
   113  N          0.17808150       0.03182900       0.57750700
   114  N          0.82191850       0.96817100       0.42249300
   115  C          0.08592190       0.96402880       0.61550100
   116  C          0.91407810       0.03597120       0.38449900
   117  H          0.01910000      -0.00550000       0.65320000
   118  H         -0.01910000       0.00550000       0.34680000
   119  C          0.08282000       0.85192870       0.60277120
   120  C          0.91718000       0.14807130       0.39722880
   121  H          0.01520000       0.80670000       0.63100000
   122  H         -0.01520000       0.19330000       0.36900000
   123  C          0.17992000       0.80686870       0.54820130
   124  C          0.82008000       0.19313130       0.45179870
   125  H          0.18060000       0.73010000       0.53830000
   126  H          0.81940000       0.26990000       0.46170000
   127  C          0.27592000       0.87567870       0.50831120
   128  C          0.72408000       0.12432130       0.49168880
   129  H          0.34390000       0.84710000       0.47050000
   130  H          0.65610000       0.15290000       0.52950000
   131  C          0.27122000       0.98702880       0.52454100
   132  C          0.72878000       0.01297120       0.47545900
   133  H          0.33710000       0.03400000       0.49680000
   134  H          0.66290000       0.96600000       0.50320000
   135  Cl         0.14249600       0.50215300       0.21220400
   136  Cl         0.85750400       0.49784700       0.78779600
   137  Cl         0.04770600       0.45629400       0.37465300
   138  Cl         0.95229400       0.54370600       0.62534700
   139  Cl         0.89707400       0.32912400       0.21739400
   140  Cl         0.10292600       0.67087600       0.78260600
   141  C          0.97748000       0.45870130       0.26262110
   142  C          0.02252000       0.54129870       0.73737890
   143  H          0.88660000       0.51090000       0.25200000
   144  H          0.11340000       0.48910000       0.74800000
