data_TUZFAX
_symmetry_space_group_name_H-M    'P1'
_symmetry_Int_Tables_number       1
loop_
_symmetry_equiv_pos_site_id
_symmetry_equiv_pos_as_xyz
1 x,y,z
_cell_length_a                   7.5215
_cell_length_b                   37.2835
_cell_length_c                   8.6425
_cell_angle_alpha                90.0
_cell_angle_beta                 108.4605
_cell_angle_gamma                90.0
loop_
_atom_site_label
_atom_site_type_symbol
_atom_site_fract_x
_atom_site_fract_y
_atom_site_fract_z
     1  C          0.40063000       0.22070600       0.94982000
     2  C          0.59937000       0.72070600       0.55018000
     3  C          0.59937000       0.77929400       0.05018000
     4  C          0.40063000       0.27929400       0.44982000
     5  H          0.46470000       0.24160000      -0.00770000
     6  H          0.53530000       0.74160000       0.50770000
     7  H          0.53530000       0.75840000       0.00770000
     8  H          0.46470000       0.25840000       0.49230000
     9  C          0.30693000       0.21871600       0.78562000
    10  C          0.69307000       0.71871600       0.71438000
    11  C          0.69307000       0.78128400       0.21438000
    12  C          0.30693000       0.28128400       0.28562000
    13  H          0.30490000       0.23830000       0.71850000
    14  H          0.69510000       0.73830000       0.78150000
    15  H          0.69510000       0.76170000       0.28150000
    16  H          0.30490000       0.26170000       0.21850000
    17  C          0.21623000       0.18759500       0.72092000
    18  C          0.78377000       0.68759500       0.77908000
    19  C          0.78377000       0.81240500       0.27908000
    20  C          0.21623000       0.31240500       0.22092000
    21  H          0.15250000       0.18600000       0.60970000
    22  H          0.84750000       0.68600000       0.89030000
    23  H          0.84750000       0.81400000       0.39030000
    24  H          0.15250000       0.31400000       0.10970000
    25  C          0.21962000       0.15837500       0.82192000
    26  C          0.78038000       0.65837500       0.67808000
    27  C          0.78038000       0.84162500       0.17808000
    28  C          0.21962000       0.34162500       0.32192000
    29  C          0.31333000       0.16346500      -0.01308000
    30  C          0.68667000       0.66346500       0.51308000
    31  C          0.68667000       0.83653500       0.01308000
    32  C          0.31333000       0.33653500       0.48692000
    33  H          0.31400000       0.14460000       0.05770000
    34  H          0.68600000       0.64460000       0.44230000
    35  H          0.68600000       0.85540000       0.94230000
    36  H          0.31400000       0.35540000       0.55770000
    37  C          0.13242000       0.12335500       0.77442000
    38  C          0.86758000       0.62335500       0.72558000
    39  C          0.86758000       0.87664500       0.22558000
    40  C          0.13242000       0.37664500       0.27442000
    41  H          0.13890000       0.10820000       0.86140000
    42  H          0.86110000       0.60820000       0.63860000
    43  H          0.86110000       0.89180000       0.13860000
    44  H          0.13890000       0.39180000       0.36140000
    45  C          0.04462000       0.10925500       0.62712000
    46  C          0.95538000       0.60925500       0.87288000
    47  C          0.95538000       0.89074500       0.37288000
    48  C          0.04462000       0.39074500       0.12712000
    49  C          0.95913000       0.07293500       0.62372000
    50  C          0.04087000       0.57293500       0.87628000
    51  C          0.04087000       0.92706500       0.37628000
    52  C          0.95913000       0.42706500       0.12372000
    53  C          0.81312000       0.06163500       0.46852000
    54  C          0.18688000       0.56163500       0.03148000
    55  C          0.18688000       0.93836500       0.53148000
    56  C          0.81312000       0.43836500       0.96852000
    57  C          0.77332000       0.08733500       0.32692000
    58  C          0.22668000       0.58733500       0.17308000
    59  C          0.22668000       0.91266500       0.67308000
    60  C          0.77332000       0.41266500       0.82692000
    61  H          0.72060000       0.07410000       0.22600000
    62  H          0.27940000       0.57410000       0.27400000
    63  H          0.27940000       0.92590000       0.77400000
    64  H          0.72060000       0.42590000       0.72600000
    65  H          0.68080000       0.10470000       0.33520000
    66  H          0.31920000       0.60470000       0.16480000
    67  H          0.31920000       0.89530000       0.66480000
    68  H          0.68080000       0.39530000       0.83520000
    69  C          0.01593000       0.12851500       0.46681190
    70  C         -0.01593000       0.62851500       0.03318810
    71  C         -0.01593000       0.87148500       0.53318810
    72  C          0.01593000       0.37148500       0.96681190
    73  H          0.93120000       0.14850000       0.46030000
    74  H          0.06880000       0.64850000       0.03970000
    75  H          0.06880000       0.85150000       0.53970000
    76  H          0.93120000       0.35150000       0.96030000
    77  H          0.13520000       0.13830000       0.46650000
    78  H          0.86480000       0.63830000       0.03350000
    79  H          0.86480000       0.86170000       0.53350000
    80  H          0.13520000       0.36170000       0.96650000
    81  C          0.08053000       0.08250600       0.29162000
    82  C          0.91947000       0.58250600       0.20838000
    83  C          0.91947000       0.91749400       0.70838000
    84  C          0.08053000       0.41749400       0.79162000
    85  H          0.18910000       0.09620000       0.29290000
    86  H          0.81090000       0.59620000       0.20710000
    87  H          0.81090000       0.90380000       0.70710000
    88  H          0.18910000       0.40380000       0.79290000
    89  H          0.02880000       0.07120000       0.18720000
    90  H          0.97120000       0.57120000       0.31280000
    91  H          0.97120000       0.92880000       0.81280000
    92  H          0.02880000       0.42880000       0.68720000
    93  H          0.11540000       0.06450000       0.37530000
    94  H          0.88460000       0.56450000       0.12470000
    95  H          0.88460000       0.93550000       0.62470000
    96  H          0.11540000       0.43550000       0.87530000
    97  C          0.73163000       0.02968500       0.46342000
    98  C          0.26837000       0.52968500       0.03658000
    99  C          0.26837000       0.97031500       0.53658000
   100  C          0.73163000       0.47031500       0.96342000
   101  H          0.77570000       0.01540000       0.55600000
   102  H          0.22430000       0.51540000       0.94400000
   103  H          0.22430000       0.98460000       0.44400000
   104  H          0.77570000       0.48460000       0.05600000
   105  C          0.57953000       0.01465500       0.32712000
   106  C          0.42047000       0.51465500       0.17288000
   107  C          0.42047000       0.98534500       0.67288000
   108  C          0.57953000       0.48534500       0.82712000
   109  C          0.56663000       0.97778500       0.30192000
   110  C          0.43337000       0.47778500       0.19808000
   111  C          0.43337000       0.02221500       0.69808000
   112  C          0.56663000       0.52221500       0.80192000
   113  H          0.65660000       0.96340000       0.37370000
   114  H          0.34340000       0.46340000       0.12630000
   115  H          0.34340000       0.03660000       0.62630000
   116  H          0.65660000       0.53660000       0.87370000
   117  C          0.44013000       0.03531500       0.22092000
   118  C          0.55987000       0.53531500       0.27908000
   119  C          0.55987000       0.96468500       0.77908000
   120  C          0.44013000       0.46468500       0.72092000
   121  H          0.43960000       0.06010000       0.23430000
   122  H          0.56040000       0.56010000       0.26570000
   123  H          0.56040000       0.93990000       0.76570000
   124  H          0.43960000       0.43990000       0.73430000
   125  C          0.30233000       0.01912600       0.09572000
   126  C          0.69767000       0.51912600       0.40428000
   127  C          0.69767000       0.98087400       0.90428000
   128  C          0.30233000       0.48087400       0.59572000
   129  H          0.20940000       0.03270000       0.02250000
   130  H          0.79060000       0.53270000       0.47750000
   131  H          0.79060000       0.96730000       0.97750000
   132  H          0.20940000       0.46730000       0.52250000
   133  C          0.30533000       0.98247400       0.08142000
   134  C          0.69467000       0.48247400       0.41858000
   135  C          0.69467000       0.01752600       0.91858000
   136  C          0.30533000       0.51752600       0.58142000
   137  H          0.21210000       0.97160000      -0.00330000
   138  H          0.78790000       0.47160000       0.50330000
   139  H          0.78790000       0.02840000       0.00330000
   140  H          0.21210000       0.52840000       0.49670000
   141  N          0.40222000       0.19352400       0.04986180
   142  N          0.59778000       0.69352400       0.45013820
   143  N          0.59778000       0.80647600       0.95013820
   144  N          0.40222000       0.30647600       0.54986180
   145  N          0.94092000       0.10626400       0.32134160
   146  N          0.05908000       0.60626400       0.17865840
   147  N          0.05908000       0.89373600       0.67865840
   148  N          0.94092000       0.39373600       0.82134160
   149  N          0.43432000       0.96167600       0.18222000
   150  N          0.56568000       0.46167600       0.31778000
   151  N          0.56568000       0.03832400       0.81778000
   152  N          0.43432000       0.53832400       0.68222000
   153  O          0.00312000       0.05333400       0.74292170
   154  O         -0.00312000       0.55333400       0.75707830
   155  O         -0.00312000       0.94666600       0.25707830
   156  O          0.00312000       0.44666600       0.24292170
   157  C          0.81822000       0.19203500       0.86472000
   158  C          0.18178000       0.69203500       0.63528000
   159  C          0.18178000       0.80796500       0.13528000
   160  C          0.81822000       0.30796500       0.36472000
   161  C          0.79623000       0.16127500       0.94752000
   162  C          0.20377000       0.66127500       0.55248000
   163  C          0.20377000       0.83872500       0.05248000
   164  C          0.79623000       0.33872500       0.44752000
   165  C          0.68923000       0.13288500       0.86152000
   166  C          0.31077000       0.63288500       0.63848000
   167  C          0.31077000       0.86711500       0.13848000
   168  C          0.68923000       0.36711500       0.36152000
   169  C          0.60642000       0.13516500       0.69532000
   170  C          0.39358000       0.63516500       0.80468000
   171  C          0.39358000       0.86483500       0.30468000
   172  C          0.60642000       0.36483500       0.19532000
   173  H          0.53540000       0.11610000       0.63830000
   174  H          0.46460000       0.61610000       0.86170000
   175  H          0.46460000       0.88390000       0.36170000
   176  H          0.53540000       0.38390000       0.13830000
   177  C          0.62882000       0.16587500       0.61252000
   178  C          0.37118000       0.66587500       0.88748000
   179  C          0.37118000       0.83412500       0.38748000
   180  C          0.62882000       0.33412500       0.11252000
   181  C          0.73552000       0.19429500       0.69702000
   182  C          0.26448000       0.69429500       0.80298000
   183  C          0.26448000       0.80570500       0.30298000
   184  C          0.73552000       0.30570500       0.19702000
   185  H          0.75130000       0.21480000       0.64140000
   186  H          0.24870000       0.71480000       0.85860000
   187  H          0.24870000       0.78520000       0.35860000
   188  H          0.75130000       0.28520000       0.14140000
   189  C          0.53322000       0.16741500       0.43412000
   190  C          0.46678000       0.66741500       0.06588000
   191  C          0.46678000       0.83258500       0.56588000
   192  C          0.53322000       0.33258500       0.93412000
   193  O          0.92492000       0.21835300       0.95804150
   194  O          0.07508000       0.71835300       0.54195850
   195  O          0.07508000       0.78164700       0.04195850
   196  O          0.92492000       0.28164700       0.45804150
   197  H          0.92550000       0.23590000       0.90100000
   198  H          0.07450000       0.73590000       0.59900000
   199  H          0.07450000       0.76410000       0.09900000
   200  H          0.92550000       0.26410000       0.40100000
   201  O          0.87932000       0.16067300       0.11072150
   202  O          0.12068000       0.66067300       0.38927850
   203  O          0.12068000       0.83932700       0.88927850
   204  O          0.87932000       0.33932700       0.61072150
   205  H          0.87830000       0.14010000       0.14440000
   206  H          0.12170000       0.64010000       0.35560000
   207  H          0.12170000       0.85990000       0.85560000
   208  H          0.87830000       0.35990000       0.64440000
   209  O          0.67232000       0.10405400       0.95266150
   210  O          0.32768000       0.60405400       0.54733850
   211  O          0.32768000       0.89594600       0.04733850
   212  O          0.67232000       0.39594600       0.45266150
   213  H          0.62370000       0.08740000       0.89210000
   214  H          0.37630000       0.58740000       0.60790000
   215  H          0.37630000       0.91260000       0.10790000
   216  H          0.62370000       0.41260000       0.39210000
   217  O          0.57162000       0.19601400       0.36094150
   218  O          0.42838000       0.69601400       0.13905850
   219  O          0.42838000       0.80398600       0.63905850
   220  O          0.57162000       0.30398600       0.86094150
   221  H          0.51820000       0.19450000       0.26240000
   222  H          0.48180000       0.69450000       0.23760000
   223  H          0.48180000       0.80550000       0.73760000
   224  H          0.51820000       0.30550000       0.76240000
   225  O          0.42952190       0.14367400       0.36009150
   226  O          0.57047810       0.64367400       0.13990850
   227  O          0.57047810       0.85632600       0.63990850
   228  O          0.42952190       0.35632600       0.86009150
   229  O          0.93845000       0.28031500       0.82203000
   230  O          0.06155000       0.78031500       0.67797000
   231  O          0.06155000       0.71968500       0.17797000
   232  O          0.93845000       0.21968500       0.32203000
   233  H          0.03930000       0.28061100       0.79750000
   234  H          0.96070000       0.78061100       0.70250000
   235  H          0.96070000       0.71938900       0.20250000
   236  H          0.03930000       0.21938900       0.29750000
   237  H          0.85650000       0.29311300       0.75660000
   238  H          0.14350000       0.79311300       0.74340000
   239  H          0.14350000       0.70688700       0.24340000
   240  H          0.85650000       0.20688700       0.25660000
