data_UBAGUB
_symmetry_space_group_name_H-M    'P1'
_symmetry_Int_Tables_number       1
loop_
_symmetry_equiv_pos_site_id
_symmetry_equiv_pos_as_xyz
1 x,y,z
_cell_length_a                   17.592519
_cell_length_b                   9.561211
_cell_length_c                   16.780519
_cell_angle_alpha                90.0
_cell_angle_beta                 111.79301
_cell_angle_gamma                90.0
loop_
_atom_site_label
_atom_site_type_symbol
_atom_site_fract_x
_atom_site_fract_y
_atom_site_fract_z
     1  C          0.47009140       0.22743000       0.49745140
     2  C          0.52990860       0.72743000       0.00254860
     3  C          0.52990860       0.77257000       0.50254860
     4  C          0.47009140       0.27257000      -0.00254860
     5  H          0.43640000       0.27410000       0.52380000
     6  H          0.56360000       0.77410000       0.97620000
     7  H          0.56360000       0.72590000       0.47620000
     8  H          0.43640000       0.22590000       0.02380000
     9  H          0.45710000       0.12840000       0.49350000
    10  H          0.54290000       0.62840000       0.00650000
    11  H          0.54290000       0.87160000       0.50650000
    12  H          0.45710000       0.37160000      -0.00650000
    13  C          0.45182140       0.28512000       0.40976140
    14  C          0.54817860       0.78512000       0.09023860
    15  C          0.54817860       0.71488000       0.59023860
    16  C          0.45182140       0.21488000       0.90976140
    17  C          0.46415140       0.41102000       0.30552140
    18  C          0.53584860       0.91102000       0.19447860
    19  C          0.53584860       0.58898000       0.69447860
    20  C          0.46415140       0.08898000       0.80552140
    21  C          0.48593170       0.50343000       0.25366170
    22  C          0.51406830       0.00343000       0.24633830
    23  C          0.51406830       0.49657000       0.74633830
    24  C          0.48593170      -0.00343000       0.75366170
    25  H          0.53360000       0.55640000       0.27470000
    26  H          0.46640000       0.05640000       0.22530000
    27  H          0.46640000       0.44360000       0.72530000
    28  H          0.53360000       0.94360000       0.77470000
    29  C          0.43297190       0.51193000       0.16934180
    30  C          0.56702810       0.01193000       0.33065820
    31  C          0.56702810       0.48807000       0.83065820
    32  C          0.43297190      -0.01193000       0.66934180
    33  H          0.44490000       0.57380000       0.13280000
    34  H          0.55510000       0.07380000       0.36720000
    35  H          0.55510000       0.42620000       0.86720000
    36  H          0.44490000       0.92620000       0.63280000
    37  C          0.36258190       0.43153000       0.13701170
    38  C          0.63741810       0.93153000       0.36298830
    39  C          0.63741810       0.56847000       0.86298830
    40  C          0.36258190       0.06847000       0.63701170
    41  H          0.32890000       0.44010000       0.07950000
    42  H          0.67110000       0.94010000       0.42050000
    43  H          0.67110000       0.55990000       0.92050000
    44  H          0.32890000       0.05990000       0.57950000
    45  C          0.34130160       0.33913000       0.18834150
    46  C          0.65869840       0.83913000       0.31165850
    47  C          0.65869840       0.66087000       0.81165850
    48  C          0.34130160       0.16087000       0.68834150
    49  H          0.29430000       0.28440000       0.16650000
    50  H          0.70570000       0.78440000       0.33350000
    51  H          0.70570000       0.71560000       0.83350000
    52  H          0.29430000       0.21560000       0.66650000
    53  C          0.39307150       0.33102000       0.27407140
    54  C          0.60692850       0.83102000       0.22592860
    55  C          0.60692850       0.66898000       0.72592860
    56  C          0.39307150       0.16898000       0.77407140
    57  C          0.57616140       0.21923000       0.63970130
    58  C          0.42383860       0.71923000       0.86029870
    59  C          0.42383860       0.78077000       0.36029870
    60  C          0.57616140       0.28077000       0.13970130
    61  H          0.58140000       0.11910000       0.64960000
    62  H          0.41860000       0.61910000       0.85040000
    63  H          0.41860000       0.88090000       0.35040000
    64  H          0.58140000       0.38090000       0.14960000
    65  H          0.53300000       0.25310000       0.65760000
    66  H          0.46700000       0.75310000       0.84240000
    67  H          0.46700000       0.74690000       0.34240000
    68  H          0.53300000       0.24690000       0.15760000
    69  C          0.65437140       0.28882000       0.69101130
    70  C          0.34562860       0.78882000       0.80898870
    71  C          0.34562860       0.71118000       0.30898870
    72  C          0.65437140       0.21118000       0.19101130
    73  C          0.76518140       0.35082000       0.80047140
    74  C          0.23481860       0.85082000       0.69952860
    75  C          0.23481860       0.64918000       0.19952860
    76  C          0.76518140       0.14918000       0.30047140
    77  C          0.82719170       0.36723000       0.88010150
    78  C          0.17280830       0.86723000       0.61989850
    79  C          0.17280830       0.63277000       0.11989850
    80  C          0.82719170       0.13277000       0.38010150
    81  H          0.83070000       0.31080000       0.92650000
    82  H          0.16930000       0.81080000       0.57350000
    83  H          0.16930000       0.68920000       0.07350000
    84  H          0.83070000       0.18920000       0.42650000
    85  C          0.88280180       0.47043000       0.88699180
    86  C          0.11719820       0.97043000       0.61300820
    87  C          0.11719820       0.52957000       0.11300820
    88  C          0.88280180       0.02957000       0.38699180
    89  H          0.92530000       0.48500000       0.93950000
    90  H          0.07470000       0.98500000       0.56050000
    91  H          0.07470000       0.51500000       0.06050000
    92  H          0.92530000       0.01500000       0.43950000
    93  C          0.87747190       0.55433000       0.81750190
    94  C          0.12252810       0.05433000       0.68249810
    95  C          0.12252810       0.44567000       0.18249810
    96  C          0.87747190       0.94567000       0.31750190
    97  H          0.91660000       0.62350000       0.82480000
    98  H          0.08340000       0.12350000       0.67520000
    99  H          0.08340000       0.37650000       0.17520000
   100  H          0.91660000       0.87650000       0.32480000
   101  C          0.81634170       0.53833000       0.73856170
   102  C          0.18365830       0.03833000       0.76143830
   103  C          0.18365830       0.46167000       0.26143830
   104  C          0.81634170       0.96167000       0.23856170
   105  H          0.81300000       0.59480000       0.69230000
   106  H          0.18700000       0.09480000       0.80770000
   107  H          0.18700000       0.40520000       0.30770000
   108  H          0.81300000       0.90520000       0.19230000
   109  C          0.75994140       0.43412000       0.73132140
   110  C          0.24005860       0.93412000       0.76867860
   111  C          0.24005860       0.56588000       0.26867860
   112  C          0.75994140       0.06588000       0.23132140
   113  N          0.49972110       0.37903190       0.39186110
   114  N          0.50027890       0.87903190       0.10813890
   115  N          0.50027890       0.62096810       0.60813890
   116  N          0.49972110       0.12096810       0.89186110
   117  H          0.54460000       0.41330000       0.42770000
   118  H          0.45540000       0.91330000       0.07230000
   119  H          0.45540000       0.58670000       0.57230000
   120  H          0.54460000       0.08670000       0.92770000
   121  N          0.38669110       0.25192000       0.34135110
   122  N          0.61330890       0.75192000       0.15864890
   123  N          0.61330890       0.74808000       0.65864890
   124  N          0.38669110       0.24808000       0.84135110
   125  N          0.68981110       0.39128190       0.66391110
   126  N          0.31018890       0.89128190       0.83608890
   127  N          0.31018890       0.60871810       0.33608890
   128  N          0.68981110       0.10871810       0.16391110
   129  H          0.67220000       0.42560000       0.61290000
   130  H          0.32780000       0.92560000       0.88710000
   131  H          0.32780000       0.57440000       0.38710000
   132  H          0.67220000       0.07440000       0.11290000
   133  N          0.69869120       0.26122000       0.77261110
   134  N          0.30130880       0.76122000       0.72738890
   135  N          0.30130880       0.73878000       0.22738890
   136  N          0.69869120       0.23878000       0.27261110
   137  H          0.68790000       0.19790000       0.80320000
   138  H          0.31210000       0.69790000       0.69680000
   139  H          0.31210000       0.80210000       0.19680000
   140  H          0.68790000       0.30210000       0.30320000
   141  N          0.55491120       0.24732000       0.54956110
   142  N          0.44508880       0.74732000       0.95043890
   143  N          0.44508880       0.75268000       0.45043890
   144  N          0.55491120       0.25268000       0.04956110
   145  H          0.59040000       0.27380000       0.52860000
   146  H          0.40960000       0.77380000       0.97140000
   147  H          0.40960000       0.72620000       0.47140000
   148  H          0.59040000       0.22620000       0.02860000
   149  C          0.18741150       0.91412000       0.34302140
   150  C          0.81258850       0.41412000       0.15697860
   151  C          0.81258850       0.08588000       0.65697860
   152  C          0.18741150       0.58588000       0.84302140
   153  C          0.12237160       0.93743000       0.26702170
   154  C          0.87762840       0.43743000       0.23297830
   155  C          0.87762840       0.06257000       0.73297830
   156  C          0.12237160       0.56257000       0.76702170
   157  H          0.12440000       0.01090000       0.23160000
   158  H          0.87560000       0.51090000       0.26840000
   159  H          0.87560000      -0.01090000       0.76840000
   160  H          0.12440000       0.48910000       0.73160000
   161  C          0.05437180       0.85203000       0.24342000
   162  C          0.94562820       0.35203000       0.25658000
   163  C          0.94562820       0.14797000       0.75658000
   164  C          0.05437180       0.64797000       0.74342000
   165  H          0.01040000       0.86810000       0.19230000
   166  H         -0.01040000       0.36810000       0.30770000
   167  H         -0.01040000       0.13190000       0.80770000
   168  H          0.01040000       0.63190000       0.69230000
   169  C          0.05192000       0.74283000       0.29593000
   170  C          0.94808000       0.24283000       0.20407000
   171  C          0.94808000       0.25717000       0.70407000
   172  C          0.05192000       0.75717000       0.79593000
   173  H          0.00680000       0.68340000       0.27940000
   174  H         -0.00680000       0.18340000       0.22060000
   175  H         -0.00680000       0.31660000       0.72060000
   176  H          0.00680000       0.81660000       0.77940000
   177  C          0.11502000       0.72143000       0.37142000
   178  C          0.88498000       0.22143000       0.12858000
   179  C          0.88498000       0.27857000       0.62858000
   180  C          0.11502000       0.77857000       0.87142000
   181  H          0.11210000       0.64930000       0.40740000
   182  H          0.88790000       0.14930000       0.09260000
   183  H          0.88790000       0.35070000       0.59260000
   184  H          0.11210000       0.85070000       0.90740000
   185  C          0.18298180       0.80543000       0.39529170
   186  C          0.81701820       0.30543000       0.10470830
   187  C          0.81701820       0.19457000       0.60470830
   188  C          0.18298180       0.69457000       0.89529170
   189  H          0.22630000       0.78910000       0.44690000
   190  H          0.77370000       0.28910000       0.05310000
   191  H          0.77370000       0.21090000       0.55310000
   192  H          0.22630000       0.71090000       0.94690000
   193  C          0.26270150       0.00242000       0.36822150
   194  C          0.73729850       0.50242000       0.13177850
   195  C          0.73729850      -0.00242000       0.63177850
   196  C          0.26270150       0.49758000       0.86822150
   197  O          0.32227110       0.97727180       0.43274110
   198  O          0.67772890       0.47727180       0.06725890
   199  O          0.67772890       0.02272820       0.56725890
   200  O          0.32227110       0.52272820       0.93274110
   201  O          0.25890110       0.10322000       0.31621120
   202  O          0.74109890       0.60322000       0.18378880
   203  O          0.74109890       0.89678000       0.68378880
   204  O          0.25890110       0.39678000       0.81621120
   205  H          0.30300000       0.14410000       0.33200000
   206  H          0.69700000       0.64410000       0.16800000
   207  H          0.69700000       0.85590000       0.66800000
   208  H          0.30300000       0.35590000       0.83200000
   209  C          0.22883140       0.06742000       0.02993130
   210  C          0.77116860       0.56742000       0.47006870
   211  C          0.77116860       0.93258000       0.97006870
   212  C          0.22883140       0.43258000       0.52993130
   213  C          0.21247160       0.17913000       0.97425850
   214  C          0.78752840       0.67913000       0.52574150
   215  C          0.78752840       0.82087000       0.02574150
   216  C          0.21247160       0.32087000       0.47425850
   217  H          0.25050000       0.20520000       0.95060000
   218  H          0.74950000       0.70520000       0.54940000
   219  H          0.74950000       0.79480000       0.04940000
   220  H          0.25050000       0.29480000       0.45060000
   221  C          0.14012000       0.25293000       0.95320810
   222  C          0.85988000       0.75293000       0.54679190
   223  C          0.85988000       0.74707000       0.04679190
   224  C          0.14012000       0.24707000       0.45320810
   225  H          0.12970000       0.32840000       0.91570000
   226  H          0.87030000       0.82840000       0.58430000
   227  H          0.87030000       0.67160000       0.08430000
   228  H          0.12970000       0.17160000       0.41570000
   229  C          0.08371190       0.21474000       0.98768000
   230  C          0.91628810       0.71474000       0.51232000
   231  C          0.91628810       0.78526000       0.01232000
   232  C          0.08371190       0.28526000       0.48768000
   233  H          0.03450000       0.26310000       0.97260000
   234  H          0.96550000       0.76310000       0.52740000
   235  H          0.96550000       0.73690000       0.02740000
   236  H          0.03450000       0.23690000       0.47260000
   237  C          0.09967180       0.10593000       0.04417190
   238  C          0.90032820       0.60593000       0.45582810
   239  C          0.90032820       0.89407000       0.95582810
   240  C          0.09967180       0.39407000       0.54417190
   241  H          0.06150000       0.08040000       0.06770000
   242  H          0.93850000       0.58040000       0.43230000
   243  H          0.93850000       0.91960000       0.93230000
   244  H          0.06150000       0.41960000       0.56770000
   245  C          0.17221160       0.03413000       0.06618160
   246  C          0.82778840       0.53413000       0.43381840
   247  C          0.82778840       0.96587000       0.93381840
   248  C          0.17221160       0.46587000       0.56618160
   249  H          0.18340000       0.96190000       0.10610000
   250  H          0.81660000       0.46190000       0.39390000
   251  H          0.81660000       0.03810000       0.89390000
   252  H          0.18340000       0.53810000       0.60610000
   253  C          0.30616150       0.98378000       0.05063150
   254  C          0.69383850       0.48378000       0.44936850
   255  C          0.69383850       0.01622000       0.94936850
   256  C          0.30616150       0.51622000       0.55063150
   257  O          0.32551120       0.90068000       0.11178130
   258  O          0.67448880       0.40068000       0.38821870
   259  O          0.67448880       0.09932000       0.88821870
   260  O          0.32551120       0.59932000       0.61178130
   261  O          0.34811100       0.00194170       0.00501100
   262  O          0.65188900       0.50194170       0.49498900
   263  O          0.65188900      -0.00194170      -0.00501100
   264  O          0.34811100       0.49805830       0.50501100
