data_UBAHAI
_symmetry_space_group_name_H-M    'P1'
_symmetry_Int_Tables_number       1
loop_
_symmetry_equiv_pos_site_id
_symmetry_equiv_pos_as_xyz
1 x,y,z
_cell_length_a                   18.7933
_cell_length_b                   9.476215
_cell_length_c                   16.8073
_cell_angle_alpha                90.0
_cell_angle_beta                 107.7592
_cell_angle_gamma                90.0
loop_
_atom_site_label
_atom_site_type_symbol
_atom_site_fract_x
_atom_site_fract_y
_atom_site_fract_z
     1  O          0.13743700      -0.00264860       0.47546800
     2  O          0.86256300       0.49735140       0.02453200
     3  O          0.86256300       0.00264860       0.52453200
     4  O          0.13743700       0.50264860       0.97546800
     5  O          0.15940800       0.08789180       0.36433100
     6  O          0.84059200       0.58789180       0.13566900
     7  O          0.84059200       0.91210820       0.63566900
     8  O          0.15940800       0.41210820       0.86433100
     9  O          0.46006120       0.61023000       0.56468160
    10  O          0.53993880       0.11023000       0.93531840
    11  O          0.53993880       0.38977000       0.43531840
    12  O          0.46006120       0.88977000       0.06468160
    13  O          0.50093110       0.74243000       0.48676170
    14  O          0.49906890       0.24243000       0.01323830
    15  O          0.49906890       0.25757000       0.51323830
    16  O          0.50093110       0.75757000       0.98676170
    17  N          0.45300110       0.70723000       0.51601140
    18  N          0.54699890       0.20723000       0.98398860
    19  N          0.54699890       0.29277000       0.48398860
    20  N          0.45300110       0.79277000       0.01601140
    21  C          0.24755900       0.92492180       0.44592100
    22  C          0.75244100       0.42492180       0.05407900
    23  C          0.75244100       0.07507820       0.55407900
    24  C          0.24755900       0.57507820       0.94592100
    25  C          0.26040100       0.81652000       0.50329110
    26  C          0.73959900       0.31652000      -0.00329110
    27  C          0.73959900       0.18348000       0.49670890
    28  C          0.26040100       0.68348000       0.00329110
    29  H          0.22360000       0.79240000       0.52740000
    30  H          0.77640000       0.29240000       0.97260000
    31  H          0.77640000       0.20760000       0.47260000
    32  H          0.22360000       0.70760000       0.02740000
    33  C          0.32721110       0.74312000       0.52553130
    34  C          0.67278890       0.24312000       0.97446870
    35  C          0.67278890       0.25688000       0.47446870
    36  C          0.32721110       0.75688000       0.02553130
    37  H          0.33570000       0.66980000       0.56410000
    38  H          0.66430000       0.16980000       0.93590000
    39  H          0.66430000       0.33020000       0.43590000
    40  H          0.33570000       0.83020000       0.06410000
    41  C          0.38048110       0.78122000       0.48946120
    42  C          0.61951890       0.28122000       0.01053880
    43  C          0.61951890       0.21878000       0.51053880
    44  C          0.38048110       0.71878000       0.98946120
    45  C          0.36910110       0.88602000       0.43063130
    46  C          0.63089890       0.38602000       0.06936870
    47  C          0.63089890       0.11398000       0.56936870
    48  C          0.36910110       0.61398000       0.93063130
    49  H          0.40600000       0.90910000       0.40650000
    50  H          0.59400000       0.40910000       0.09350000
    51  H          0.59400000       0.09090000       0.59350000
    52  H          0.40600000       0.59090000       0.90650000
    53  C          0.30168110       0.95632000       0.40816120
    54  C          0.69831890       0.45632000       0.09183880
    55  C          0.69831890       0.04368000       0.59183880
    56  C          0.30168110       0.54368000       0.90816120
    57  H          0.29240000       0.02570000       0.36710000
    58  H          0.70760000       0.52570000       0.13290000
    59  H          0.70760000       0.97430000       0.63290000
    60  H          0.29240000       0.47430000       0.86710000
    61  C          0.17599100       0.01007190       0.42640110
    62  C          0.82400900       0.51007190       0.07359890
    63  C          0.82400900      -0.01007190       0.57359890
    64  C          0.17599100       0.48992810       0.92640110
    65  O          0.22116700       0.89546840       0.16390900
    66  O          0.77883300       0.39546840       0.33609100
    67  O          0.77883300       0.10453160       0.83609100
    68  O          0.22116700       0.60453160       0.66390900
    69  H          0.18110000       0.85380000       0.15370000
    70  H          0.81890000       0.35380000       0.34630000
    71  H          0.81890000       0.14620000       0.84630000
    72  H          0.18110000       0.64620000       0.65370000
    73  O          0.15907700       0.02061150       0.05295800
    74  O          0.84092300       0.52061150       0.44704200
    75  O          0.84092300       0.97938850       0.94704200
    76  O          0.15907700       0.47938850       0.55295800
    77  O          0.52592900       0.32846190       0.22229130
    78  O          0.47407100       0.82846190       0.27770870
    79  O          0.47407100       0.67153810       0.77770870
    80  O          0.52592900       0.17153810       0.72229130
    81  O          0.45942100       0.47168180       0.13108130
    82  O          0.54057900       0.97168180       0.36891870
    83  O          0.54057900       0.52831820       0.86891870
    84  O          0.45942100       0.02831820       0.63108130
    85  N          0.46775100       0.36193190       0.17042130
    86  N          0.53224900       0.86193190       0.32957870
    87  N          0.53224900       0.63806810       0.82957870
    88  N          0.46775100       0.13806810       0.67042130
    89  C          0.28322900       0.08861180       0.12684100
    90  C          0.71677100       0.58861180       0.37315900
    91  C          0.71677100       0.91138820       0.87315900
    92  C          0.28322900       0.41138820       0.62684100
    93  C          0.34479100       0.06962000       0.19637120
    94  C          0.65520900       0.56962000       0.30362880
    95  C          0.65520900       0.93038000       0.80362880
    96  C          0.34479100       0.43038000       0.69637120
    97  H          0.34500000      -0.00300000       0.23370000
    98  H          0.65500000       0.49700000       0.26630000
    99  H          0.65500000       0.00300000       0.76630000
   100  H          0.34500000       0.50300000       0.73370000
   101  C          0.40612100       0.15802000       0.21087130
   102  C          0.59387900       0.65802000       0.28912870
   103  C          0.59387900       0.84198000       0.78912870
   104  C          0.40612100       0.34198000       0.71087130
   105  H          0.44770000       0.14560000       0.25740000
   106  H          0.55230000       0.64560000       0.24260000
   107  H          0.55230000       0.85440000       0.74260000
   108  H          0.44770000       0.35440000       0.75740000
   109  C          0.40391100       0.26435190       0.15476120
   110  C          0.59608900       0.76435190       0.34523880
   111  C          0.59608900       0.73564810       0.84523880
   112  C          0.40391100       0.23564810       0.65476120
   113  C          0.34446110       0.28442000       0.08447120
   114  C          0.65553890       0.78442000       0.41552880
   115  C          0.65553890       0.71558000       0.91552880
   116  C          0.34446110       0.21558000       0.58447120
   117  H          0.34500000       0.35630000       0.04700000
   118  H          0.65500000       0.85630000       0.45300000
   119  H          0.65500000       0.64370000       0.95300000
   120  H          0.34500000       0.14370000       0.54700000
   121  C          0.28370100       0.19522000       0.07057110
   122  C          0.71629900       0.69522000       0.42942890
   123  C          0.71629900       0.80478000       0.92942890
   124  C          0.28370100       0.30478000       0.57057110
   125  H          0.24280000       0.20670000       0.02310000
   126  H          0.75720000       0.70670000       0.47690000
   127  H          0.75720000       0.79330000       0.97690000
   128  H          0.24280000       0.29330000       0.52310000
   129  C          0.21511900      -0.00324180       0.11155110
   130  C          0.78488100       0.49675820       0.38844890
   131  C          0.78488100       0.00324180       0.88844890
   132  C          0.21511900       0.50324180       0.61155110
   133  N          0.17533800       0.10134160       0.64597800
   134  N          0.82466200       0.60134160       0.85402200
   135  N          0.82466200       0.89865840       0.35402200
   136  N          0.17533800       0.39865840       0.14597800
   137  H          0.15840000       0.06500000       0.59690000
   138  H          0.84160000       0.56500000       0.90310000
   139  H          0.84160000       0.93500000       0.40310000
   140  H          0.15840000       0.43500000       0.09690000
   141  N          0.18486800       0.23515170       0.75349900
   142  N          0.81513200       0.73515170       0.74650100
   143  N          0.81513200       0.76484830       0.24650100
   144  N          0.18486800       0.26484830       0.25349900
   145  H          0.17500000       0.29900000       0.78490000
   146  H          0.82500000       0.79900000       0.71510000
   147  H          0.82500000       0.70100000       0.21510000
   148  H          0.17500000       0.20100000       0.28490000
   149  N          0.05110800       0.24498180       0.54337900
   150  N          0.94889200       0.74498180       0.95662100
   151  N          0.94889200       0.75501820       0.45662100
   152  N          0.05110800       0.25501820       0.04337900
   153  H          0.07690000       0.30790000       0.52200000
   154  H          0.92310000       0.80790000       0.97800000
   155  H          0.92310000       0.69210000       0.47800000
   156  H          0.07690000       0.19210000       0.02200000
   157  N          0.89472200       0.24393160       0.34923900
   158  N          0.10527800       0.74393160       0.15076100
   159  N          0.10527800       0.75606840       0.65076100
   160  N          0.89472200       0.25606840       0.84923900
   161  N         -0.00018800       0.12117160       0.38817900
   162  N          0.00018800       0.62117160       0.11182100
   163  N          0.00018800       0.87882840       0.61182100
   164  N         -0.00018800       0.37882840       0.88817900
   165  H          0.04170000       0.08830000       0.41930000
   166  H          0.95830000       0.58830000       0.08070000
   167  H          0.95830000       0.91170000       0.58070000
   168  H          0.04170000       0.41170000       0.91930000
   169  C          0.24692100       0.14802000       0.77517110
   170  C          0.75307900       0.64802000       0.72482890
   171  C          0.75307900       0.85198000       0.22482890
   172  C          0.24692100       0.35198000       0.27517110
   173  C          0.30658120       0.13692000       0.84816120
   174  C          0.69341880       0.63692000       0.65183880
   175  C          0.69341880       0.86308000       0.15183880
   176  C          0.30658120       0.36308000       0.34816120
   177  H          0.31030000       0.19450000       0.89410000
   178  H          0.68970000       0.69450000       0.60590000
   179  H          0.68970000       0.80550000       0.10590000
   180  H          0.31030000       0.30550000       0.39410000
   181  C          0.35958120       0.03713000       0.84906140
   182  C          0.64041880       0.53713000       0.65093860
   183  C          0.64041880       0.96287000       0.15093860
   184  C          0.35958120       0.46287000       0.34906140
   185  H          0.40060000       0.02740000       0.89650000
   186  H          0.59940000       0.52740000       0.60350000
   187  H          0.59940000       0.97260000       0.10350000
   188  H          0.40060000       0.47260000       0.39650000
   189  C          0.35357120       0.95007000       0.78103150
   190  C          0.64642880       0.45007000       0.71896850
   191  C          0.64642880       0.04993000       0.21896850
   192  C          0.35357120       0.54993000       0.28103150
   193  H          0.39040000       0.88270000       0.78460000
   194  H          0.60960000       0.38270000       0.71540000
   195  H          0.60960000       0.11730000       0.21540000
   196  H          0.39040000       0.61730000       0.28460000
   197  C          0.29478110       0.96038000       0.70830130
   198  C          0.70521890       0.46038000       0.79169870
   199  C          0.70521890       0.03962000       0.29169870
   200  C          0.29478110       0.53962000       0.20830130
   201  H          0.29120000       0.90220000       0.66270000
   202  H          0.70880000       0.40220000       0.83730000
   203  H          0.70880000       0.09780000       0.33730000
   204  H          0.29120000       0.59780000       0.16270000
   205  C          0.24127900       0.06200190       0.70667100
   206  C          0.75872100       0.56200190       0.79332900
   207  C          0.75872100       0.93799810       0.29332900
   208  C          0.24127900       0.43799810       0.20667100
   209  C          0.14282900       0.20422190       0.67613100
   210  C          0.85717100       0.70422190       0.82386900
   211  C          0.85717100       0.79577810       0.32386900
   212  C          0.14282900       0.29577810       0.17613100
   213  C          0.07019100       0.27122000       0.63248100
   214  C          0.92980900       0.77122000       0.86751900
   215  C          0.92980900       0.72878000       0.36751900
   216  C          0.07019100       0.22878000       0.13248100
   217  H          0.03160000       0.23300000       0.65360000
   218  H          0.96840000       0.73300000       0.84640000
   219  H          0.96840000       0.76700000       0.34640000
   220  H          0.03160000       0.26700000       0.15360000
   221  H          0.07330000       0.37210000       0.64290000
   222  H          0.92670000       0.87210000       0.85710000
   223  H          0.92670000       0.62790000       0.35710000
   224  H          0.07330000       0.12790000       0.14290000
   225  C          0.97311100       0.26932000       0.49835110
   226  C          0.02688900       0.76932000       0.00164890
   227  C          0.02688900       0.73068000       0.50164890
   228  C          0.97311100       0.23068000      -0.00164890
   229  H          0.96260000       0.36970000       0.49630000
   230  H          0.03740000       0.86970000       0.00370000
   231  H          0.03740000       0.63030000       0.50370000
   232  H          0.96260000       0.13030000      -0.00370000
   233  H          0.94200000       0.22330000       0.52720000
   234  H          0.05800000       0.72330000       0.97280000
   235  H          0.05800000       0.77670000       0.47280000
   236  H          0.94200000       0.27670000       0.02720000
   237  C          0.95550100       0.21265180       0.41194110
   238  C          0.04449900       0.71265180       0.08805890
   239  C          0.04449900       0.78734820       0.58805890
   240  C          0.95550100       0.28734820       0.91194110
   241  C          0.89989100       0.16674180       0.28068100
   242  C          0.10010900       0.66674180       0.21931900
   243  C          0.10010900       0.83325820       0.71931900
   244  C          0.89989100       0.33325820       0.78068100
   245  C          0.85083890       0.15652000       0.19978110
   246  C          0.14916110       0.65652000       0.30021890
   247  C          0.14916110       0.84348000       0.80021890
   248  C          0.85083890       0.34348000       0.69978110
   249  H          0.80670000       0.20820000       0.18320000
   250  H          0.19330000       0.70820000       0.31680000
   251  H          0.19330000       0.79180000       0.81680000
   252  H          0.80670000       0.29180000       0.68320000
   253  C          0.87014880       0.06732000       0.14558120
   254  C          0.12985120       0.56732000       0.35441880
   255  C          0.12985120       0.93268000       0.85441880
   256  C          0.87014880       0.43268000       0.64558120
   257  H          0.83850000       0.05830000       0.09120000
   258  H          0.16150000       0.55830000       0.40880000
   259  H          0.16150000       0.94170000       0.90880000
   260  H          0.83850000       0.44170000       0.59120000
   261  C          0.93622880      -0.01032000       0.17022130
   262  C          0.06377120       0.48968000       0.32977870
   263  C          0.06377120       0.01032000       0.82977870
   264  C          0.93622880       0.51032000       0.67022130
   265  H          0.94720000       0.92950000       0.13180000
   266  H          0.05280000       0.42950000       0.36820000
   267  H          0.05280000       0.07050000       0.86820000
   268  H          0.94720000       0.57050000       0.63180000
   269  C          0.98602890      -0.00092000       0.24973120
   270  C          0.01397110       0.49908000       0.25026880
   271  C          0.01397110       0.00092000       0.75026880
   272  C          0.98602890       0.50092000       0.74973120
   273  H          0.03040000       0.94800000       0.26560000
   274  H          0.96960000       0.44800000       0.23440000
   275  H          0.96960000       0.05200000       0.73440000
   276  H          0.03040000       0.55200000       0.76560000
   277  C          0.96617100       0.08911180       0.30473110
   278  C          0.03382900       0.58911180       0.19526890
   279  C          0.03382900       0.91088820       0.69526890
   280  C          0.96617100       0.41088820       0.80473110
