data_UBIYEL
_symmetry_space_group_name_H-M    'P1'
_symmetry_Int_Tables_number       1
loop_
_symmetry_equiv_pos_site_id
_symmetry_equiv_pos_as_xyz
1 x,y,z
_cell_length_a                   7.0833
_cell_length_b                   11.1455
_cell_length_c                   22.4491
_cell_angle_alpha                90.0
_cell_angle_beta                 90.0
_cell_angle_gamma                90.0
loop_
_atom_site_label
_atom_site_type_symbol
_atom_site_fract_x
_atom_site_fract_y
_atom_site_fract_z
     1  P          0.57322500       0.21165300       0.12514314
     2  P          0.92677500       0.78834700       0.62514314
     3  P          0.07322500       0.28834700       0.87485686
     4  P          0.42677500       0.71165300       0.37485686
     5  S          0.37640500       0.33668400       0.11661315
     6  S          0.12359500       0.66331600       0.61661315
     7  S          0.87640500       0.16331600       0.88338685
     8  S          0.62359500       0.83668400       0.38338685
     9  O          0.70337140       0.19979900       0.07181400
    10  O          0.79662860       0.80020100       0.57181400
    11  O          0.20337140       0.30020100       0.92818600
    12  O          0.29662860       0.69979900       0.42818600
    13  O          0.46342170       0.08671100       0.13562500
    14  O          0.03657830       0.91328900       0.63562500
    15  O          0.96342170       0.41328900       0.86437500
    16  O          0.53657830       0.58671100       0.36437500
    17  C          0.71570190       0.23205130       0.19181600
    18  C          0.78429810       0.76794870       0.69181600
    19  C          0.21570190       0.26794870       0.80818400
    20  C          0.28429810       0.73205130       0.30818400
    21  C          0.47152000       0.12789170       0.25786700
    22  C          0.02848000       0.87210830       0.75786700
    23  C          0.97152000       0.37210830       0.74213300
    24  C          0.52848000       0.62789170       0.24213300
    25  H          0.37090000       0.17390000       0.23750000
    26  H          0.12910000       0.82610000       0.73750000
    27  H          0.87090000       0.32610000       0.76250000
    28  H          0.62910000       0.67390000       0.26250000
    29  H          0.44170000       0.12700000       0.30090000
    30  H          0.05830000       0.87300000       0.80090000
    31  H          0.94170000       0.37300000       0.69910000
    32  H          0.55830000       0.62700000       0.19910000
    33  C          0.88872000       0.29179150       0.18552600
    34  C          0.61128000       0.70820850       0.68552600
    35  C          0.38872000       0.20820850       0.81447400
    36  C          0.11128000       0.79179150       0.31447400
    37  H          0.92740000       0.31840000       0.14720000
    38  H          0.57260000       0.68160000       0.64720000
    39  H          0.42740000       0.18160000       0.85280000
    40  H          0.07260000       0.81840000       0.35280000
    41  C          0.65762000       0.19148150       0.24878600
    42  C          0.84238000       0.80851850       0.74878600
    43  C          0.15762000       0.30851850       0.75121400
    44  C          0.34238000       0.69148150       0.25121400
    45  C          0.54673000      -0.00855140       0.17096800
    46  C          0.95327000       0.00855140       0.67096800
    47  C          0.04673000       0.50855140       0.82903200
    48  C          0.45327000       0.49144860       0.32903200
    49  H          0.68580000       0.00020000       0.17150000
    50  H          0.81420000      -0.00020000       0.67150000
    51  H          0.18580000       0.49980000       0.82850000
    52  H          0.31420000       0.50020000       0.32850000
    53  H          0.51560000       0.91260000       0.15320000
    54  H         -0.01560000       0.08740000       0.65320000
    55  H          0.01560000       0.58740000       0.84680000
    56  H          0.48440000       0.41260000       0.34680000
    57  C          0.00502000       0.31284180       0.23457700
    58  C          0.49498000       0.68715820       0.73457700
    59  C          0.50502000       0.18715820       0.76542300
    60  C         -0.00502000       0.81284180       0.26542300
    61  H          0.12040000       0.35530000       0.23000000
    62  H          0.37960000       0.64470000       0.73000000
    63  H          0.62040000       0.14470000       0.77000000
    64  H          0.87960000       0.85530000       0.27000000
    65  C          0.77873000       0.21092190       0.29714700
    66  C          0.72127000       0.78907810       0.79714700
    67  C          0.27873000       0.28907810       0.70285300
    68  C          0.22127000       0.71092190       0.20285300
    69  H          0.74310000       0.18260000       0.33540000
    70  H          0.75690000       0.81740000       0.83540000
    71  H          0.24310000       0.31740000       0.66460000
    72  H          0.25690000       0.68260000       0.16460000
    73  C          0.46963000      -0.00175170       0.23442800
    74  C          0.03037000       0.00175170       0.73442800
    75  C          0.96963000       0.50175170       0.76557200
    76  C          0.53037000       0.49824830       0.26557200
    77  H          0.54730000       0.94710000       0.26090000
    78  H          0.95270000       0.05290000       0.76090000
    79  H          0.04730000       0.55290000       0.73910000
    80  H          0.45270000       0.44710000       0.23910000
    81  H          0.33880000       0.96710000       0.23510000
    82  H          0.16120000       0.03290000       0.73510000
    83  H          0.83880000       0.53290000       0.76490000
    84  H          0.66120000       0.46710000       0.26490000
    85  C          0.94953000       0.27062000       0.29050800
    86  C          0.55047000       0.72938000       0.79050800
    87  C          0.44953000       0.22938000       0.70949200
    88  C          0.05047000       0.77062000       0.20949200
    89  H          0.02880000       0.28280000       0.32410000
    90  H          0.47120000       0.71720000       0.82410000
    91  H          0.52880000       0.21720000       0.67590000
    92  H          0.97120000       0.78280000       0.17590000
    93  N          0.57224170       0.32342100       0.96814500
    94  N          0.92775830       0.67657900       0.46814500
    95  N          0.07224170       0.17657900       0.03185500
    96  N          0.42775830       0.82342100       0.53185500
    97  C          0.60152000       0.45548120       0.98055400
    98  C          0.89848000       0.54451880       0.48055400
    99  C          0.10152000       0.04451880       0.01944600
   100  C          0.39848000       0.95548120       0.51944600
   101  H          0.50940000       0.48130000       0.01180000
   102  H         -0.00940000       0.51870000       0.51180000
   103  H          0.00940000       0.01870000       0.98820000
   104  H          0.49060000       0.98130000       0.48820000
   105  C          0.80252000       0.47074120       0.00526600
   106  C          0.69748000       0.52925880       0.50526600
   107  C          0.30252000       0.02925880      -0.00526600
   108  C          0.19748000       0.97074120       0.49473400
   109  H          0.81460000       0.42080000       0.04150000
   110  H          0.68540000       0.57920000       0.54150000
   111  H          0.31460000       0.07920000       0.95850000
   112  H          0.18540000       0.92080000       0.45850000
   113  H          0.89270000       0.43900000       0.97550000
   114  H          0.60730000       0.56100000       0.47550000
   115  H          0.39270000       0.06100000       0.02450000
   116  H          0.10730000       0.93900000       0.52450000
   117  C          0.56152000       0.52575140       0.92342300
   118  C          0.93848000       0.47424860       0.42342300
   119  C          0.06152000       0.97424860       0.07657700
   120  C          0.43848000       0.02575140       0.57657700
   121  H          0.65200000       0.50200000       0.89260000
   122  H          0.84800000       0.49800000       0.39260000
   123  H          0.15200000      -0.00200000       0.10740000
   124  H          0.34800000       0.00200000       0.60740000
   125  H          0.57390000       0.61190000       0.93130000
   126  H          0.92610000       0.38810000       0.43130000
   127  H          0.07390000       0.88810000       0.06870000
   128  H          0.42610000       0.11190000       0.56870000
   129  H          0.43300000       0.50840000       0.90980000
   130  H          0.06700000       0.49160000       0.40980000
   131  H          0.93300000      -0.00840000       0.09020000
   132  H          0.56700000       0.00840000       0.59020000
   133  C          0.86102000       0.59935130       0.02086700
   134  C          0.63898000       0.40064870       0.52086700
   135  C          0.36102000       0.90064870       0.97913300
   136  C          0.13898000       0.09935130       0.47913300
   137  H          0.85440000       0.64910000       0.98390000
   138  H          0.64560000       0.35090000       0.48390000
   139  H          0.35440000       0.85090000       0.01610000
   140  H          0.14560000       0.14910000       0.51610000
   141  C          0.73243000       0.65549180       0.06761900
   142  C          0.76757000       0.34450820       0.56761900
   143  C          0.23243000       0.84450820       0.93238100
   144  C          0.26757000       0.15549180       0.43238100
   145  H          0.73770000       0.60790000       0.10430000
   146  H          0.76230000       0.39210000       0.60430000
   147  H          0.23770000       0.89210000       0.89570000
   148  H          0.26230000       0.10790000       0.39570000
   149  H          0.60240000       0.65710000       0.05270000
   150  H          0.89760000       0.34290000       0.55270000
   151  H          0.10240000       0.84290000       0.94730000
   152  H          0.39760000       0.15710000       0.44730000
   153  H          0.77440000       0.73760000       0.07590000
   154  H          0.72560000       0.26240000       0.57590000
   155  H          0.27440000       0.76240000       0.92410000
   156  H          0.22560000       0.23760000       0.42410000
   157  C          0.06673000       0.59713160       0.04257900
   158  C          0.43327000       0.40286840       0.54257900
   159  C          0.56673000       0.90286840       0.95742100
   160  C          0.93327000       0.09713160       0.45742100
   161  H          0.07530000       0.54940000       0.07910000
   162  H          0.42470000       0.45060000       0.57910000
   163  H          0.57530000       0.95060000       0.92090000
   164  H          0.92470000       0.04940000       0.42090000
   165  H          0.10900000       0.67930000       0.05070000
   166  H          0.39100000       0.32070000       0.55070000
   167  H          0.60900000       0.82070000       0.94930000
   168  H          0.89100000       0.17930000       0.44930000
   169  H          0.14700000       0.56140000       0.01180000
   170  H          0.35300000       0.43860000       0.51180000
   171  H          0.64700000       0.93860000       0.98820000
   172  H          0.85300000       0.06140000       0.48820000
