data_UBIYAH
_symmetry_space_group_name_H-M    'P1'
_symmetry_Int_Tables_number       1
loop_
_symmetry_equiv_pos_site_id
_symmetry_equiv_pos_as_xyz
1 x,y,z
_cell_length_a                   11.0928
_cell_length_b                   6.8544
_cell_length_c                   12.0748
_cell_angle_alpha                90.0
_cell_angle_beta                 111.0373
_cell_angle_gamma                90.0
loop_
_atom_site_label
_atom_site_type_symbol
_atom_site_fract_x
_atom_site_fract_y
_atom_site_fract_z
     1  P          0.63042130       0.04252000       0.25058120
     2  P          0.36957870       0.54252000       0.74941880
     3  S          0.53091150       0.28152000       0.24980140
     4  S          0.46908850       0.78152000       0.75019860
     5  O          0.57604000       0.85944000       0.30164000
     6  O          0.42396000       0.35944000       0.69836000
     7  O          0.62824000       0.97384000       0.13123000
     8  O          0.37176000       0.47384000       0.86877000
     9  C          0.05696000       0.07891100       0.50006000
    10  C          0.94304000       0.57891100       0.49994000
    11  H          0.14490000       0.08050000       0.55120000
    12  H          0.85510000       0.58050000       0.44880000
    13  C          0.89415000       0.06409000       0.30415000
    14  C          0.10585000       0.56409000       0.69585000
    15  H          0.87170000       0.05810000       0.22050000
    16  H          0.12830000       0.55810000       0.77950000
    17  C          0.82766000       0.07099000       0.47475000
    18  C          0.17234000       0.57099000       0.52525000
    19  C          0.53526000       0.87058900       0.40256000
    20  C          0.46474000       0.37058900       0.59744000
    21  H          0.48520000       0.75190000       0.40470000
    22  H          0.51480000       0.25190000       0.59530000
    23  H          0.47740000      -0.01550000       0.39280000
    24  H          0.52260000       0.48450000       0.60720000
    25  C          0.79615000       0.06138000       0.35125000
    26  C          0.20385000       0.56138000       0.64875000
    27  C          0.72886000       0.07371200       0.53376000
    28  C          0.27114000       0.57371200       0.46624000
    29  H          0.67000000       0.18550000       0.50170000
    30  H          0.33000000       0.68550000       0.49830000
    31  H          0.77410000       0.09700000       0.61960000
    32  H          0.22590000       0.59700000       0.38040000
    33  C          0.96006000       0.08019000       0.54655000
    34  C          0.03994000       0.58019000       0.45345000
    35  H         -0.01680000       0.08750000       0.63010000
    36  H          0.01680000       0.58750000       0.36990000
    37  C          0.02456000       0.07531000       0.37706000
    38  C          0.97544000       0.57531000       0.62294000
    39  H          0.08990000       0.08040000       0.34340000
    40  H          0.91010000       0.58040000       0.65660000
    41  C          0.64726000       0.88908900       0.51866000
    42  C          0.35274000       0.38908900       0.48134000
    43  H          0.70430000       0.77460000       0.52740000
    44  H          0.29570000       0.27460000       0.47260000
    45  H          0.61300000       0.88390000       0.58390000
    46  H          0.38700000       0.38390000       0.41610000
    47  N          0.59575000       0.58478000       0.06054000
    48  N          0.40425000       0.08478000       0.93946000
    49  C          0.71455000       0.54531000       0.03245000
    50  C          0.28545000       0.04531000       0.96755000
    51  H          0.72080000       0.64420000       0.97380000
    52  H          0.27920000       0.14420000       0.02620000
    53  C          0.70606000       0.34419000       0.97925000
    54  C          0.29394000       0.84419000       0.02075000
    55  H          0.62720000       0.33820000       0.90700000
    56  H          0.37280000       0.83820000       0.09300000
    57  H          0.69510000       0.24850000       0.03650000
    58  H          0.30490000       0.74850000       0.96350000
    59  C          0.82196000       0.27941000       0.94595000
    60  C          0.17804000       0.77941000       0.05405000
    61  H          0.90010000       0.28010000       0.02040000
    62  H          0.09990000       0.78010000       0.97960000
    63  C          0.83026000       0.56771100       0.14776000
    64  C          0.16974000       0.06771100       0.85224000
    65  H          0.82150000       0.68880000       0.18740000
    66  H          0.17850000       0.18880000       0.81260000
    67  H          0.90980000       0.57230000       0.13010000
    68  H          0.09020000       0.07230000       0.86990000
    69  H          0.83360000       0.45650000       0.19980000
    70  H          0.16640000       0.95650000       0.80020000
    71  C          0.84757000       0.41611200       0.85992000
    72  C          0.15243000       0.91611200       0.14008000
    73  H          0.91740000       0.36400000       0.83710000
    74  H          0.08260000       0.86400000       0.16290000
    75  H          0.87260000       0.54410000       0.89740000
    76  H          0.12740000       0.04410000       0.10260000
    77  H          0.76910000       0.42970000       0.78930000
    78  H          0.23090000       0.92970000       0.21070000
    79  C          0.79927000       0.06921200       0.90173000
    80  C          0.20073000       0.56921200       0.09827000
    81  H          0.79550000      -0.01570000       0.96580000
    82  H          0.20450000       0.48430000       0.03420000
    83  H          0.87010000       0.02750000       0.87700000
    84  H          0.12990000       0.52750000       0.12300000
    85  H          0.71740000       0.06090000       0.83430000
    86  H          0.28260000       0.56090000       0.16570000
