data_UBIYOV
_symmetry_space_group_name_H-M    'P1'
_symmetry_Int_Tables_number       1
loop_
_symmetry_equiv_pos_site_id
_symmetry_equiv_pos_as_xyz
1 x,y,z
_cell_length_a                   8.74569
_cell_length_b                   8.89769
_cell_length_c                   22.377519
_cell_angle_alpha                90.0
_cell_angle_beta                 90.0
_cell_angle_gamma                90.0
loop_
_atom_site_label
_atom_site_type_symbol
_atom_site_fract_x
_atom_site_fract_y
_atom_site_fract_z
     1  P         -0.00891100       0.55342900       0.13877400
     2  P          0.50891100       0.44657100       0.63877400
     3  P          0.49108900       0.94657100       0.86122600
     4  P          0.00891100       0.05342900       0.36122600
     5  S          0.16575900       0.41103900       0.13771400
     6  S          0.33424100       0.58896100       0.63771400
     7  S          0.66575900       0.08896100       0.86228600
     8  S          0.83424100       0.91103900       0.36228600
     9  O          0.92773000       0.59603000       0.19891110
    10  O          0.57227000       0.40397000       0.69891110
    11  O          0.42773000       0.90397000       0.80108890
    12  O          0.07227000       0.09603000       0.30108890
    13  O          0.03493000       0.71393000       0.10943110
    14  O          0.46507000       0.28607000       0.60943110
    15  O          0.53493000       0.78607000       0.89056890
    16  O          0.96507000       0.21393000       0.39056890
    17  C          0.85844000       0.46684000       0.02857170
    18  C          0.64156000       0.53316000       0.52857170
    19  C          0.35844000       0.03316000       0.97142830
    20  C          0.14156000       0.96684000       0.47142830
    21  C          0.84214000       0.48163000       0.09122160
    22  C          0.65786000       0.51837000       0.59122160
    23  C          0.34214000       0.01837000       0.90877840
    24  C          0.15786000       0.98163000       0.40877840
    25  C          0.70694000       0.44144000       0.11953190
    26  C          0.79306000       0.55856000       0.61953190
    27  C          0.20694000       0.05856000       0.88046810
    28  C          0.29306000       0.94144000       0.38046810
    29  H          0.69640000       0.45160000       0.16160000
    30  H          0.80360000       0.54840000       0.66160000
    31  H          0.19640000       0.04840000       0.83840000
    32  H          0.30360000       0.95160000       0.33840000
    33  C          0.73775000       0.40844000      -0.00355190
    34  C          0.76225000       0.59156000       0.49644810
    35  C          0.23775000       0.09156000       0.00355190
    36  C          0.26225000       0.90844000       0.50355190
    37  H          0.74770000       0.39550000       0.95450000
    38  H          0.75230000       0.60450000       0.45450000
    39  H          0.24770000       0.10450000       0.04550000
    40  H          0.25230000       0.89550000       0.54550000
    41  C          0.04155000       0.68484000      -0.00023180
    42  C          0.45845000       0.31516000       0.49976820
    43  C          0.54155000       0.81516000       0.00023180
    44  C          0.95845000       0.18484000       0.50023180
    45  H          0.10570000       0.71160000       0.96490000
    46  H          0.39430000       0.28840000       0.46490000
    47  H          0.60570000       0.78840000       0.03510000
    48  H          0.89430000       0.21160000       0.53510000
    49  H          0.94660000       0.74520000      -0.00260000
    50  H          0.55340000       0.25480000       0.49740000
    51  H          0.44660000       0.75480000       0.00260000
    52  H          0.05340000       0.24520000       0.50260000
    53  C         -0.00165000       0.51434000      -0.00470180
    54  C          0.50165000       0.48566000       0.49529820
    55  C          0.49835000      -0.01434000       0.00470180
    56  C          0.00165000       0.01434000       0.50470180
    57  H          0.98400000       0.48890000       0.95260000
    58  H          0.51600000       0.51110000       0.45260000
    59  H          0.48400000       0.01110000       0.04740000
    60  H          0.01600000      -0.01110000       0.54740000
    61  H          0.08580000       0.45440000       0.01020000
    62  H          0.41420000       0.54560000       0.51020000
    63  H          0.58580000       0.04560000       0.98980000
    64  H          0.91420000       0.95440000       0.48980000
    65  C          0.58694000       0.38564000       0.08492000
    66  C          0.91306000       0.61436000       0.58492000
    67  C          0.08694000       0.11436000       0.91508000
    68  C          0.41306000       0.88564000       0.41508000
    69  H          0.49300000       0.35900000       0.10350000
    70  H          0.00700000       0.64100000       0.60350000
    71  H         -0.00700000       0.14100000       0.89650000
    72  H          0.50700000       0.85900000       0.39650000
    73  C          0.12605000       0.72734000       0.05619170
    74  C          0.37395000       0.27266000       0.55619170
    75  C          0.62605000       0.77266000       0.94380830
    76  C          0.87395000       0.22734000       0.44380830
    77  H          0.21720000       0.66210000       0.06020000
    78  H          0.28280000       0.33790000       0.56020000
    79  H          0.71720000       0.83790000       0.93980000
    80  H          0.78280000       0.16210000       0.43980000
    81  H          0.16210000       0.83230000       0.05250000
    82  H          0.33790000       0.16770000       0.55250000
    83  H          0.66210000       0.66770000       0.94750000
    84  H          0.83790000       0.33230000       0.44750000
    85  C          0.60385000       0.36884000       0.02392000
    86  C          0.89615000       0.63116000       0.52392000
    87  C          0.10385000       0.13116000       0.97608000
    88  C          0.39615000       0.86884000       0.47608000
    89  H          0.52190000       0.32950000       0.00080000
    90  H          0.97810000       0.67050000       0.50080000
    91  H          0.02190000       0.17050000      -0.00080000
    92  H          0.47810000       0.82950000       0.49920000
    93  O          0.02443000       0.07263000       0.12829130
    94  O          0.47557000       0.92737000       0.62829130
    95  O          0.52443000       0.42737000       0.87170870
    96  O          0.97557000       0.57263000       0.37170870
    97  N          0.89573000       0.91273000       0.22076130
    98  N          0.60427000       0.08727000       0.72076130
    99  N          0.39573000       0.58727000       0.77923870
   100  N          0.10427000       0.41273000       0.27923870
   101  C          0.63734000       0.97184000       0.18467150
   102  C          0.86266000       0.02816000       0.68467150
   103  C          0.13734000       0.52816000       0.81532850
   104  C          0.36266000       0.47184000       0.31532850
   105  C          0.86664000       0.04404000       0.12426160
   106  C          0.63336000       0.95596000       0.62426160
   107  C          0.36664000       0.45596000       0.87573840
   108  C          0.13336000       0.54404000       0.37573840
   109  H          0.84920000       0.95200000       0.10030000
   110  H          0.65080000       0.04800000       0.60030000
   111  H          0.34920000       0.54800000       0.89970000
   112  H          0.15080000       0.45200000       0.39970000
   113  H          0.81550000       0.12890000       0.10380000
   114  H          0.68450000       0.87110000       0.60380000
   115  H          0.31550000       0.37110000       0.89620000
   116  H          0.18450000       0.62890000       0.39620000
   117  C          0.59914000       0.82464000       0.16608170
   118  C          0.90086000       0.17536000       0.66608170
   119  C          0.09914000       0.67536000       0.83391830
   120  C          0.40086000       0.32464000       0.33391830
   121  H          0.67790000       0.75570000       0.15600000
   122  H          0.82210000       0.24430000       0.65600000
   123  H          0.17790000       0.74430000       0.84400000
   124  H          0.32210000       0.25570000       0.34400000
   125  C          0.79854000       0.02364000       0.18622170
   126  C          0.70146000       0.97636000       0.68622170
   127  C          0.29854000       0.47636000       0.81377830
   128  C          0.20146000       0.52364000       0.31377830
   129  H          0.80200000       0.12250000       0.20740000
   130  H          0.69800000       0.87750000       0.70740000
   131  H          0.30200000       0.37750000       0.79260000
   132  H          0.19800000       0.62250000       0.29260000
   133  C          0.52234000       0.07474000       0.19859180
   134  C          0.97766000       0.92526000       0.69859180
   135  C          0.02234000       0.42526000       0.80140820
   136  C          0.47766000       0.57474000       0.30140820
   137  H          0.54740000       0.17410000       0.21070000
   138  H          0.95260000       0.82590000       0.71070000
   139  H          0.04740000       0.32590000       0.78930000
   140  H          0.45260000       0.67410000       0.28930000
   141  C          0.37405000       0.03075000       0.19462000
   142  C          0.12595000       0.96925000       0.69462000
   143  C          0.87405000       0.46925000       0.80538000
   144  C          0.62595000       0.53075000       0.30538000
   145  H          0.29470000       0.09990000       0.20400000
   146  H          0.20530000       0.90010000       0.70400000
   147  H          0.79470000       0.40010000       0.79600000
   148  H          0.70530000       0.59990000       0.29600000
   149  C          0.33644000       0.88295000       0.17664190
   150  C          0.16356000       0.11705000       0.67664190
   151  C          0.83644000       0.61705000       0.82335810
   152  C          0.66356000       0.38295000       0.32335810
   153  H          0.23210000       0.85390000       0.17430000
   154  H          0.26790000       0.14610000       0.67430000
   155  H          0.73210000       0.64610000       0.82570000
   156  H          0.76790000       0.35390000       0.32570000
   157  C          0.44854000       0.78064000       0.16255180
   158  C          0.05146000       0.21936000       0.66255180
   159  C          0.94854000       0.71936000       0.83744820
   160  C          0.55146000       0.28064000       0.33744820
   161  H          0.42250000       0.68130000       0.15060000
   162  H          0.07750000       0.31870000       0.65060000
   163  H          0.92250000       0.81870000       0.84940000
   164  H          0.57750000       0.18130000       0.34940000
