data_UBONOQ
_symmetry_space_group_name_H-M    'P1'
_symmetry_Int_Tables_number       1
loop_
_symmetry_equiv_pos_site_id
_symmetry_equiv_pos_as_xyz
1 x,y,z
_cell_length_a                   8.5663
_cell_length_b                   10.9594
_cell_length_c                   12.5784
_cell_angle_alpha                78.5554
_cell_angle_beta                 77.8564
_cell_angle_gamma                69.0454
loop_
_atom_site_label
_atom_site_type_symbol
_atom_site_fract_x
_atom_site_fract_y
_atom_site_fract_z
     1  Cl         0.74676810       0.54469150      -0.00734130
     2  C          0.64723000       0.71206000       0.00284000
     3  C          0.49603000       0.75317000       0.06985000
     4  H          0.44330000       0.69180000       0.11060000
     5  C          0.42232000       0.88567000       0.07675000
     6  H          0.31520000       0.91560000       0.12100000
     7  C          0.72603000       0.79846000       0.94275000
     8  H          0.83040000       0.76820000       0.89570000
     9  C          0.64889000       0.93037000       0.95304000
    10  H          0.70120000      -0.00840000       0.91160000
    11  C          0.49859000       0.97638000       0.02166000
    12  O          0.46575000       0.12944000       0.13964000
    13  H          0.38280000       0.20490000       0.17080000
    14  C          0.41880000       0.11721000       0.04149000
    15  H          0.52090000       0.13770000      -0.00240000
    16  C          0.32688100       0.20421100       0.98108800
    17  H          0.20820000       0.21930000       0.01370000
    18  H          0.34670000       0.17600000       0.90880000
    19  H          0.35260000       0.28610000       0.97310000
    20  Cl         0.69477000       0.17942000       0.65291180
    21  O          0.53636000       0.92095000       0.53594000
    22  H          0.65370000       0.87880000       0.54530000
    23  C          0.95852000       0.95326000       0.64895000
    24  H          0.87790000       0.90890000       0.66100000
    25  C          0.25178000       0.94166000       0.62335000
    26  C          0.13187000       0.88275000       0.64014000
    27  H          0.16730000       0.78930000       0.64610000
    28  C          0.90851000       0.08807000       0.63945000
    29  C          0.43458000       0.86107000       0.61765000
    30  H          0.45200000       0.77080000       0.60140000
    31  C          0.02659000       0.15207000       0.61855000
    32  H          0.99010000       0.24570000       0.60940000
    33  C          0.19779000       0.08066000       0.61065000
    34  H          0.27840000       0.12510000       0.59660000
    35  C          0.49691000       0.84991200       0.72676000
    36  H          0.61670000       0.79610000       0.72160000
    37  H          0.43090000       0.80850000       0.78650000
    38  H          0.48250000       0.93820000       0.74130000
    39  O          0.03763000       0.54713000       0.44232000
    40  O          0.74626000       0.74993000       0.40453000
    41  O          0.02233000       0.66343000       0.21472000
    42  O          0.32673000       0.48713000       0.26073000
    43  O          0.65417000       0.61643000       0.33993000
    44  O          0.14034000       0.59273000       0.05123000
    45  C          0.93315000       0.53314000       0.37333000
    46  H          0.91260000       0.44700000       0.39880000
    47  O          0.23554000       0.31843000       0.27133000
    48  O          0.85376000       0.50784000       0.58883000
    49  C          0.21395000       0.43774000       0.26214000
    50  C          0.76275000       0.64394000       0.37543000
    51  C          0.03305000       0.53004000       0.25823000
    52  H          0.97870000       0.49690000       0.21210000
    53  C          0.98615000       0.52554000       0.55134000
    54  C          0.11455000       0.52185000       0.61614000
    55  C          0.10746000       0.85865000       0.95666000
    56  H          0.18520000       0.79200000       0.91550000
    57  C          0.91644000       0.92135000       0.12034000
    58  H          0.86320000       0.89820000       0.19190000
    59  C          0.28205000       0.50565000       0.56984000
    60  H          0.31660000       0.49900000       0.49360000
    61  C          0.07225000       0.68235000       0.10543000
    62  C          0.03315000       0.82395000       0.06164000
    63  C          0.39786000       0.49925000       0.63354000
    64  H          0.51170000       0.48810000       0.60070000
    65  C          0.06636000       0.53105000       0.72714000
    66  H          0.95280000       0.54000000       0.75980000
    67  C          0.87764000       0.05225000       0.07434000
    68  H          0.79850000       0.11860000       0.11510000
    69  C          0.18197000       0.52725000       0.79104000
    70  H          0.14610000       0.53740000       0.86650000
    71  C          0.95233000       0.08795000       0.96986000
    72  C          0.35116000       0.50855000       0.74514000
    73  C          0.06937000      -0.00994000       0.91126000
    74  H          0.12330000       0.01320000       0.84000000
    75  C          0.47788000       0.49968000       0.81445000
    76  H          0.51860000       0.40960000       0.85230000
    77  H          0.42460000       0.56120000       0.86860000
    78  H          0.57320000       0.52240000       0.76770000
    79  C          0.90741000       0.23126000       0.91954000
    80  H          0.79150000       0.27950000       0.95030000
    81  H          0.91630000       0.23730000       0.83990000
    82  H          0.98570000       0.26940000       0.93610000
    83  N          0.36904000       0.80084000       0.34833000
    84  N          0.59906000       0.30544000       0.30513000
    85  C          0.06255000       0.00064000       0.34903000
    86  C          0.22695000       0.77284000       0.35694000
    87  H          0.23380000       0.68350000       0.36150000
    88  C          0.07245000       0.86854000       0.35924000
    89  H          0.97280000       0.84600000       0.36770000
    90  C          0.74425000       0.32705000       0.26754000
    91  H          0.74320000       0.41100000       0.22900000
    92  C          0.89995000       0.10854000       0.33973000
    93  C          0.21175000       0.02664000       0.34274000
    94  H          0.20950000       0.11470000       0.33850000
    95  C          0.74495000       0.08975000       0.38154000
    96  H          0.74110000       0.00820000       0.42340000
    97  C          0.36215000       0.92465000       0.34234000
    98  H          0.46370000       0.94310000       0.33770000
    99  C          0.89615000       0.23184000       0.28254000
   100  H         -0.00130000       0.24980000       0.25390000
   101  C          0.59895000       0.18895000       0.36194000
   102  H          0.49390000       0.17460000       0.38950000
   103  H          0.47910000       0.71190000       0.34560000
   104  H          0.48720000       0.37370000       0.29150000
