data_UBUFIJ
_symmetry_space_group_name_H-M    'P1'
_symmetry_Int_Tables_number       1
loop_
_symmetry_equiv_pos_site_id
_symmetry_equiv_pos_as_xyz
1 x,y,z
_cell_length_a                   22.6913
_cell_length_b                   3.90305
_cell_length_c                   12.756213
_cell_angle_alpha                90.0
_cell_angle_beta                 90.0
_cell_angle_gamma                90.0
loop_
_atom_site_label
_atom_site_type_symbol
_atom_site_fract_x
_atom_site_fract_y
_atom_site_fract_z
     1  C          0.52127800       0.25966000       0.36776160
     2  C          0.47872200       0.74034000       0.86776160
     3  C          0.97872200       0.75966000       0.86776160
     4  C          0.02127800       0.24034000       0.36776160
     5  C          0.52707100       0.35086000       0.47237180
     6  C          0.47292900       0.64914000       0.97237180
     7  C          0.97292900       0.85086000       0.97237180
     8  C          0.02707100       0.14914000       0.47237180
     9  H          0.49800000       0.30280000       0.52160000
    10  H          0.50200000       0.69720000       0.02160000
    11  H          0.00200000       0.80280000       0.02160000
    12  H         -0.00200000       0.19720000       0.52160000
    13  C          0.57776100       0.51426000       0.49848190
    14  C          0.42223900       0.48574000      -0.00151810
    15  C          0.92223900       0.01426000      -0.00151810
    16  C          0.07776100      -0.01426000       0.49848190
    17  H          0.58340000       0.58050000       0.56780000
    18  H          0.41660000       0.41950000       0.06780000
    19  H          0.91660000       0.08050000       0.06780000
    20  H          0.08340000       0.91950000       0.56780000
    21  C          0.62197110       0.58696000       0.42482000
    22  C          0.37802890       0.41304000       0.92482000
    23  C          0.87802890       0.08696000       0.92482000
    24  C          0.12197110       0.91304000       0.42482000
    25  H          0.65600000       0.69870000       0.44680000
    26  H          0.34400000       0.30130000       0.94680000
    27  H          0.84400000       0.19870000       0.94680000
    28  H          0.15600000       0.80130000       0.44680000
    29  C          0.61631100       0.49796000       0.32178190
    30  C          0.38368900       0.50204000       0.82178190
    31  C          0.88368900      -0.00204000       0.82178190
    32  C          0.11631100       0.00204000       0.32178190
    33  H          0.64540000       0.54770000       0.27280000
    34  H          0.35460000       0.45230000       0.77280000
    35  H          0.85460000       0.04770000       0.77280000
    36  H          0.14540000       0.95230000       0.27280000
    37  C          0.56445900       0.32805000       0.29392150
    38  C          0.43554100       0.67195000       0.79392150
    39  C          0.93554100       0.82805000       0.79392150
    40  C          0.06445900       0.17195000       0.29392150
    41  N          0.54560800       0.20515000       0.19918130
    42  N          0.45439200       0.79485000       0.69918130
    43  N          0.95439200       0.70515000       0.69918130
    44  N          0.04560800       0.29485000       0.19918130
    45  N          0.49387800       0.06515000       0.21155140
    46  N          0.50612200       0.93485000       0.71155140
    47  N          0.00612200       0.56515000       0.71155140
    48  N         -0.00612200       0.43485000       0.21155140
    49  N          0.47848800       0.09755000       0.31293150
    50  N          0.52151200       0.90245000       0.81293150
    51  N          0.02151200       0.59755000       0.81293150
    52  N          0.97848800       0.40245000       0.31293150
    53  H          0.44061200       0.01070000       0.33320000
    54  H          0.55938800      -0.01070000       0.83320000
    55  H          0.05938800       0.51070000       0.83320000
    56  H          0.94061200       0.48930000       0.33320000
    57  C          0.35239900       0.69006000       0.50214180
    58  C          0.64760100       0.30994000       0.00214180
    59  C          0.14760100       0.19006000       0.00214180
    60  C          0.85239900       0.80994000       0.50214180
    61  C          0.32952900       0.68175000       0.39255170
    62  C          0.67047100       0.31825000       0.89255170
    63  C          0.17047100       0.18175000       0.89255170
    64  C          0.82952900       0.81825000       0.39255170
    65  C          0.27550900       0.53856000       0.37172000
    66  C          0.72449100       0.46144000       0.87172000
    67  C          0.22449100       0.03856000       0.87172000
    68  C          0.77550900       0.96144000       0.37172000
    69  H          0.25300000       0.44520000       0.42560000
    70  H          0.74700000       0.55480000       0.92560000
    71  H          0.24700000       0.94520000       0.92560000
    72  H          0.75300000       0.05480000       0.42560000
    73  C          0.25512110       0.53497000       0.27062000
    74  C          0.74487890       0.46503000       0.77062000
    75  C          0.24487890       0.03497000       0.77062000
    76  C          0.75512110      -0.03497000       0.27062000
    77  H          0.21850000       0.44030000       0.25500000
    78  H          0.78150000       0.55970000       0.75500000
    79  H          0.28150000       0.94030000       0.75500000
    80  H          0.71850000       0.05970000       0.25500000
    81  C          0.28900110       0.67117000       0.19362000
    82  C          0.71099890       0.32883000       0.69362000
    83  C          0.21099890       0.17117000       0.69362000
    84  C          0.78900110       0.82883000       0.19362000
    85  H          0.27610000       0.67180000       0.12440000
    86  H          0.72390000       0.32820000       0.62440000
    87  H          0.22390000       0.17180000       0.62440000
    88  H          0.77610000       0.82820000       0.12440000
    89  C          0.34297110       0.80866000       0.22004180
    90  C          0.65702890       0.19134000       0.72004180
    91  C          0.15702890       0.30866000       0.72004180
    92  C          0.84297110       0.69134000       0.22004180
    93  H          0.36610000       0.90180000       0.16700000
    94  H          0.63390000       0.09820000       0.66700000
    95  H          0.13390000       0.40180000       0.66700000
    96  H          0.86610000       0.59820000       0.16700000
    97  N          0.36357700       0.81454000       0.31706140
    98  N          0.63642300       0.18546000       0.81706140
    99  N          0.13642300       0.31454000       0.81706140
   100  N          0.86357700       0.68546000       0.31706140
   101  O          0.40517600       0.82205000       0.50990110
   102  O          0.59482400       0.17795000       0.00990110
   103  O          0.09482400       0.32205000       0.00990110
   104  O          0.90517600       0.67795000       0.50990110
   105  H          0.41560000       0.82010000       0.57140000
   106  H          0.58440000       0.17990000       0.07140000
   107  H          0.08440000       0.32010000       0.07140000
   108  H          0.91560000       0.67990000       0.57140000
   109  O          0.32393800       0.58486000       0.57464130
   110  O          0.67606200       0.41514000       0.07464130
   111  O          0.17606200       0.08486000       0.07464130
   112  O          0.82393800       0.91514000       0.57464130
