data_UBUJOS
_symmetry_space_group_name_H-M    'P1'
_symmetry_Int_Tables_number       1
loop_
_symmetry_equiv_pos_site_id
_symmetry_equiv_pos_as_xyz
1 x,y,z
_cell_length_a                   7.65769
_cell_length_b                   19.7102
_cell_length_c                   11.636512
_cell_angle_alpha                90.0
_cell_angle_beta                 125.5727
_cell_angle_gamma                90.0
loop_
_atom_site_label
_atom_site_type_symbol
_atom_site_fract_x
_atom_site_fract_y
_atom_site_fract_z
     1  N          0.59943190       0.93590400       0.55706120
     2  N          0.40056810       0.43590400       0.94293880
     3  N          0.40056810       0.06409600       0.44293880
     4  N          0.59943190       0.56409600       0.05706120
     5  C          0.68172000      -0.00661700       0.63159150
     6  C          0.31828000       0.49338300       0.86840850
     7  C          0.31828000       0.00661700       0.36840850
     8  C          0.68172000       0.50661700       0.13159150
     9  C          0.41772000       0.94182300       0.42559140
    10  C          0.58228000       0.44182300       0.07440860
    11  C          0.58228000       0.05817700       0.57440860
    12  C          0.41772000       0.55817700       0.92559140
    13  C          0.32282000       0.88293300       0.34022160
    14  C          0.67718000       0.38293300       0.15977840
    15  C          0.67718000       0.11706700       0.65977840
    16  C          0.32282000       0.61706700       0.84022160
    17  H          0.38660000       0.83980000       0.37680000
    18  H          0.61340000       0.33980000       0.12320000
    19  H          0.61340000       0.16020000       0.62320000
    20  H          0.38660000       0.66020000       0.87680000
    21  C          0.14182000       0.88818300       0.20698160
    22  C          0.85818000       0.38818300       0.29301840
    23  C          0.85818000       0.11181700       0.79301840
    24  C          0.14182000       0.61181700       0.70698160
    25  H          0.08010000       0.84850000       0.15070000
    26  H          0.91990000       0.34850000       0.34930000
    27  H          0.91990000       0.15150000       0.84930000
    28  H          0.08010000       0.65150000       0.65070000
    29  C          0.04302000       0.95205200       0.15031150
    30  C          0.95698000       0.45205200       0.34968850
    31  C          0.95698000       0.04794800       0.84968850
    32  C          0.04302000       0.54794800       0.65031150
    33  H          0.91640000       0.95450000       0.05650000
    34  H          0.08360000       0.45450000       0.44350000
    35  H          0.08360000       0.04550000       0.94350000
    36  H          0.91640000       0.54550000       0.55650000
    37  C          0.87372000       0.99033300       0.77229150
    38  C          0.12628000       0.49033300       0.72770850
    39  C          0.12628000       0.00966700       0.22770850
    40  C          0.87372000       0.50966700       0.27229150
    41  H          0.94280000       0.94800000       0.81140000
    42  H          0.05720000       0.44800000       0.68860000
    43  H          0.05720000       0.05200000       0.18860000
    44  H          0.94280000       0.55200000       0.31140000
    45  N          0.58575820       0.91543400       0.18620120
    46  N          0.41424180       0.41543400       0.31379880
    47  N          0.41424180       0.08456600       0.81379880
    48  N          0.58575820       0.58456600       0.68620120
    49  C          0.58308000       0.98240300       0.20134150
    50  C          0.41692000       0.48240300       0.29865850
    51  C          0.41692000       0.01759700       0.79865850
    52  C          0.58308000       0.51759700       0.70134150
    53  H          0.46740000       0.00760000       0.12530000
    54  H          0.53260000       0.50760000       0.37470000
    55  H          0.53260000       0.99240000       0.87470000
    56  H          0.46740000       0.49240000       0.62530000
    57  C          0.73928000       0.01737700       0.32148140
    58  C          0.26072000       0.51737700       0.17851860
    59  C          0.26072000       0.98262300       0.67851860
    60  C          0.73928000       0.48262300       0.82148140
    61  H          0.72800000       0.06510000       0.32690000
    62  H          0.27200000       0.56510000       0.17310000
    63  H          0.27200000       0.93490000       0.67310000
    64  H          0.72800000       0.43490000       0.82690000
    65  C          0.91288000       0.98246400       0.43433130
    66  C          0.08712000       0.48246400       0.06566870
    67  C          0.08712000       0.01753600       0.56566870
    68  C          0.91288000       0.51753600       0.93433130
    69  C          0.91518000       0.91270300       0.41853140
    70  C          0.08482000       0.41270300       0.08146860
    71  C          0.08482000       0.08729700       0.58146860
    72  C          0.91518000       0.58729700       0.91853140
    73  H          0.02950000       0.88620000       0.49230000
    74  H         -0.02950000       0.38620000       0.00770000
    75  H         -0.02950000       0.11380000       0.50770000
    76  H          0.02950000       0.61380000      -0.00770000
    77  C          0.75078000       0.88190300       0.29511150
    78  C          0.24922000       0.38190300       0.20488850
    79  C          0.24922000       0.11809700       0.70488850
    80  C          0.75078000       0.61809700       0.79511150
    81  H          0.75570000       0.83410000       0.28750000
    82  H          0.24430000       0.33410000       0.21250000
    83  H          0.24430000       0.16590000       0.71250000
    84  H          0.75570000       0.66590000       0.78750000
    85  O          0.27804150       0.84675500       0.95205900
    86  O          0.72195850       0.34675500       0.54794100
    87  O          0.72195850       0.15324500       0.04794100
    88  O          0.27804150       0.65324500       0.45205900
    89  H          0.38640000       0.86930000       0.03270000
    90  H          0.61360000       0.36930000       0.46730000
    91  H          0.61360000       0.13070000       0.96730000
    92  H          0.38640000       0.63070000       0.53270000
    93  O          0.10814150       0.75248500       0.52443900
    94  O          0.89185850       0.25248500       0.97556100
    95  O          0.89185850       0.24751500       0.47556100
    96  O          0.10814150       0.74751500       0.02443900
    97  H          0.17290000       0.72460000       0.49900000
    98  H          0.82710000       0.22460000       0.00100000
    99  H          0.82710000       0.27540000       0.50100000
   100  H          0.17290000       0.77540000      -0.00100000
   101  C          0.96158000       0.79062300       0.68737140
   102  C          0.03842000       0.29062300       0.81262860
   103  C          0.03842000       0.20937700       0.31262860
   104  C          0.96158000       0.70937700       0.18737140
   105  H          0.95640000       0.75830000       0.74930000
   106  H          0.04360000       0.25830000       0.75070000
   107  H          0.04360000       0.24170000       0.25070000
   108  H          0.95640000       0.74170000       0.24930000
   109  H          0.87630000       0.77320000       0.59040000
   110  H          0.12370000       0.27320000       0.90960000
   111  H          0.12370000       0.22680000       0.40960000
   112  H          0.87630000       0.72680000       0.09040000
   113  H          0.90280000       0.83430000       0.68990000
   114  H          0.09720000       0.33430000       0.81010000
   115  H          0.09720000       0.16570000       0.31010000
   116  H          0.90280000       0.66570000       0.18990000
   117  C          0.19132000       0.80001400       0.73731130
   118  C          0.80868000       0.30001400       0.76268870
   119  C          0.80868000       0.19998600       0.26268870
   120  C          0.19132000       0.69998600       0.23731130
   121  C          0.25962000       0.78066400       0.65375130
   122  C          0.74038000       0.28066400       0.84624870
   123  C          0.74038000       0.21933600       0.34624870
   124  C          0.25962000       0.71933600       0.15375130
   125  C          0.46902000       0.79139300       0.69688140
   126  C          0.53098000       0.29139300       0.80311860
   127  C          0.53098000       0.20860700       0.30311860
   128  C          0.46902000       0.70860700       0.19688140
   129  H          0.51080000       0.77920000       0.63710000
   130  H          0.48920000       0.27920000       0.86290000
   131  H          0.48920000       0.22080000       0.36290000
   132  H          0.51080000       0.72080000       0.13710000
   133  C          0.61592000       0.82011300       0.82794150
   134  C          0.38408000       0.32011300       0.67205850
   135  C          0.38408000       0.17988700       0.17205850
   136  C          0.61592000       0.67988700       0.32794150
   137  H          0.75960000       0.82730000       0.85830000
   138  H          0.24040000       0.32730000       0.64170000
   139  H          0.24040000       0.17270000       0.14170000
   140  H          0.75960000       0.67270000       0.35830000
   141  C          0.55622000       0.83854300       0.91525140
   142  C          0.44378000       0.33854300       0.58474860
   143  C          0.44378000       0.16145700       0.08474860
   144  C          0.55622000       0.66145700       0.41525140
   145  H          0.65850000       0.85760000       0.00560000
   146  H          0.34150000       0.35760000       0.49440000
   147  H          0.34150000       0.14240000      -0.00560000
   148  H          0.65850000       0.64240000       0.50560000
   149  C          0.34492000       0.82885400       0.86927130
   150  C          0.65508000       0.32885400       0.63072870
   151  C          0.65508000       0.17114600       0.13072870
   152  C          0.34492000       0.67114600       0.36927130
