data_UBUPOZ
_symmetry_space_group_name_H-M    'P1'
_symmetry_Int_Tables_number       1
loop_
_symmetry_equiv_pos_site_id
_symmetry_equiv_pos_as_xyz
1 x,y,z
_cell_length_a                   29.335811
_cell_length_b                   4.91302
_cell_length_c                   14.82121
_cell_angle_alpha                90.0
_cell_angle_beta                 118.8578
_cell_angle_gamma                90.0
loop_
_atom_site_label
_atom_site_type_symbol
_atom_site_fract_x
_atom_site_fract_y
_atom_site_fract_z
     1  I          0.65838200       0.61973800       0.28373300
     2  I          0.34161800       0.61973800       0.21626700
     3  I          0.15838200       0.11973800       0.28373300
     4  I          0.84161800       0.11973800       0.21626700
     5  I          0.34161800       0.38026200       0.71626700
     6  I          0.65838200       0.38026200       0.78373300
     7  I          0.84161800       0.88026200       0.71626700
     8  I          0.15838200       0.88026200       0.78373300
     9  I          0.79886200       0.69037800       0.38050300
    10  I          0.20113800       0.69037800       0.11949700
    11  I          0.29886200       0.19037800       0.38050300
    12  I          0.70113800       0.19037800       0.11949700
    13  I          0.20113800       0.30962200       0.61949700
    14  I          0.79886200       0.30962200       0.88050300
    15  I          0.70113800       0.80962200       0.61949700
    16  I          0.29886200       0.80962200       0.88050300
    17  O          0.85256170       0.30711000       0.57143000
    18  O          0.14743830       0.30711000       0.92857000
    19  O          0.35256170       0.80711000       0.57143000
    20  O          0.64743830       0.80711000       0.92857000
    21  O          0.14743830       0.69289000       0.42857000
    22  O          0.85256170       0.69289000       0.07143000
    23  O          0.64743830       0.19289000       0.42857000
    24  O          0.35256170       0.19289000       0.07143000
    25  C          0.71572000       0.40401300       0.41054000
    26  C          0.28428000       0.40401300       0.08946000
    27  C          0.21572000       0.90401300       0.41054000
    28  C          0.78428000       0.90401300       0.08946000
    29  C          0.28428000       0.59598700       0.58946000
    30  C          0.71572000       0.59598700       0.91054000
    31  C          0.78428000       0.09598700       0.58946000
    32  C          0.21572000       0.09598700       0.91054000
    33  C          0.76712000       0.43281200       0.44754000
    34  C          0.23288000       0.43281200       0.05246000
    35  C          0.26712000       0.93281200       0.44754000
    36  C          0.73288000       0.93281200       0.05246000
    37  C          0.23288000       0.56718800       0.55246000
    38  C          0.76712000       0.56718800       0.94754000
    39  C          0.73288000       0.06718800       0.55246000
    40  C          0.26712000       0.06718800       0.94754000
    41  C          0.80562000       0.28191300       0.53905000
    42  C          0.19438000       0.28191300       0.96095000
    43  C          0.30562000       0.78191300       0.53905000
    44  C          0.69438000       0.78191300       0.96095000
    45  C          0.19438000       0.71808700       0.46095000
    46  C          0.80562000       0.71808700       0.03905000
    47  C          0.69438000       0.21808700       0.46095000
    48  C          0.30562000       0.21808700       0.03905000
    49  N          0.57772000       0.95281500       0.12525000
    50  N          0.42228000       0.95281500       0.37475000
    51  N          0.07772000       0.45281500       0.12525000
    52  N          0.92228000       0.45281500       0.37475000
    53  N          0.42228000       0.04718500       0.87475000
    54  N          0.57772000       0.04718500       0.62525000
    55  N          0.92228000       0.54718500       0.87475000
    56  N          0.07772000       0.54718500       0.62525000
    57  H          0.57930000       0.00719000       0.07160000
    58  H          0.42070000       0.00719000       0.42840000
    59  H          0.07930000       0.50719000       0.07160000
    60  H          0.92070000       0.50719000       0.42840000
    61  H          0.42070000      -0.00719000       0.92840000
    62  H          0.57930000      -0.00719000       0.57160000
    63  H          0.92070000       0.49281000       0.92840000
    64  H          0.07930000       0.49281000       0.57160000
    65  H          0.57640000       0.10315000       0.15370000
    66  H          0.42360000       0.10315000       0.34630000
    67  H          0.07640000       0.60315000       0.15370000
    68  H          0.92360000       0.60315000       0.34630000
    69  H          0.42360000       0.89685000       0.84630000
    70  H          0.57640000       0.89685000       0.65370000
    71  H          0.92360000       0.39685000       0.84630000
    72  H          0.07640000       0.39685000       0.65370000
    73  C          0.53243000       0.79171500       0.09055000
    74  C          0.46757000       0.79171500       0.40945000
    75  C          0.03243000       0.29171500       0.09055000
    76  C          0.96757000       0.29171500       0.40945000
    77  C          0.46757000       0.20828500       0.90945000
    78  C          0.53243000       0.20828500       0.59055000
    79  C          0.96757000       0.70828500       0.90945000
    80  C          0.03243000       0.70828500       0.59055000
    81  C          0.49963000       0.82221700       0.13146000
    82  C          0.50037000       0.82221700       0.36854000
    83  C         -0.00037000       0.32221700       0.13146000
    84  C          0.00037000       0.32221700       0.36854000
    85  C          0.50037000       0.17778300       0.86854000
    86  C          0.49963000       0.17778300       0.63146000
    87  C          0.00037000       0.67778300       0.86854000
    88  C         -0.00037000       0.67778300       0.63146000
    89  H          0.50700000       0.95820000       0.18220000
    90  H          0.49300000       0.95820000       0.31780000
    91  H          0.00700000       0.45820000       0.18220000
    92  H         -0.00700000       0.45820000       0.31780000
    93  H          0.49300000       0.04180000       0.81780000
    94  H          0.50700000       0.04180000       0.68220000
    95  H         -0.00700000       0.54180000       0.81780000
    96  H          0.00700000       0.54180000       0.68220000
    97  C          0.45533000       0.65711800       0.10016000
    98  C          0.54467000       0.65711800       0.39984000
    99  C          0.95533000       0.15711800       0.10016000
   100  C          0.04467000       0.15711800       0.39984000
   101  C          0.54467000       0.34288200       0.89984000
   102  C          0.45533000       0.34288200       0.60016000
   103  C          0.04467000       0.84288200       0.89984000
   104  C          0.95533000       0.84288200       0.60016000
   105  H          0.43310000       0.68300000       0.12940000
   106  H          0.56690000       0.68300000       0.37060000
   107  H          0.93310000       0.18300000       0.12940000
   108  H          0.06690000       0.18300000       0.37060000
   109  H          0.56690000       0.31700000       0.87060000
   110  H          0.43310000       0.31700000       0.62940000
   111  H          0.06690000       0.81700000       0.87060000
   112  H          0.93310000       0.81700000       0.62940000
   113  C          0.44423000       0.46031600       0.02775000
   114  C          0.55577000       0.46031600       0.47225000
   115  C          0.94423000       0.96031600       0.02775000
   116  C          0.05577000       0.96031600       0.47225000
   117  C          0.55577000       0.53968400       0.97225000
   118  C          0.44423000       0.53968400       0.52775000
   119  C          0.05577000       0.03968400       0.97225000
   120  C          0.94423000       0.03968400       0.52775000
   121  H          0.41410000       0.35030000       0.00610000
   122  H          0.58590000       0.35030000       0.49390000
   123  H          0.91410000       0.85030000       0.00610000
   124  H          0.08590000       0.85030000       0.49390000
   125  H          0.58590000       0.64970000      -0.00610000
   126  H          0.41410000       0.64970000       0.50610000
   127  H          0.08590000       0.14970000      -0.00610000
   128  H          0.91410000       0.14970000       0.50610000
   129  C          0.47762000       0.41861500       0.98415000
   130  C          0.52238000       0.41861500       0.51585000
   131  C          0.97762000       0.91861500       0.98415000
   132  C          0.02238000       0.91861500       0.51585000
   133  C          0.52238000       0.58138500       0.01585000
   134  C          0.47762000       0.58138500       0.48415000
   135  C          0.02238000       0.08138500       0.01585000
   136  C          0.97762000       0.08138500       0.48415000
   137  H          0.42130000      -0.00719000       0.92840000
   138  H          0.57870000      -0.00719000       0.57160000
   139  H          0.92130000       0.49281000       0.92840000
   140  H          0.07870000       0.49281000       0.57160000
   141  H          0.57870000       0.00719000       0.07160000
   142  H          0.42130000       0.00719000       0.42840000
   143  H          0.07870000       0.50719000       0.07160000
   144  H          0.92130000       0.50719000       0.42840000
   145  H          0.42440000       0.89685000       0.84630000
   146  H          0.57560000       0.89685000       0.65370000
   147  H          0.92440000       0.39685000       0.84630000
   148  H          0.07560000       0.39685000       0.65370000
   149  H          0.57560000       0.10315000       0.15370000
   150  H          0.42440000       0.10315000       0.34630000
   151  H          0.07560000       0.60315000       0.15370000
   152  H          0.92440000       0.60315000       0.34630000
