data_UCAJUD
_symmetry_space_group_name_H-M    'P1'
_symmetry_Int_Tables_number       1
loop_
_symmetry_equiv_pos_site_id
_symmetry_equiv_pos_as_xyz
1 x,y,z
_cell_length_a                   4.79323
_cell_length_b                   11.9122
_cell_length_c                   14.9302
_cell_angle_alpha                81.741
_cell_angle_beta                 88.111
_cell_angle_gamma                82.781
loop_
_atom_site_label
_atom_site_type_symbol
_atom_site_fract_x
_atom_site_fract_y
_atom_site_fract_z
     1  Br         0.01944000       0.09361000       0.65591000
     2  Br        -0.01944000       0.90639000       0.34409000
     3  Br         0.16324000       0.34862000       0.55681000
     4  Br         0.83676000       0.65138000       0.44319000
     5  P          0.19387000       0.39493000       0.91692000
     6  P          0.80613000       0.60507000       0.08308000
     7  O          0.28020000       0.30577000       0.84795000
     8  O          0.71980000       0.69423000       0.15205000
     9  O          0.90480000       0.38117000       0.95176000
    10  O          0.09520000       0.61883000       0.04824000
    11  O          0.40610000       0.36777000      -0.00495000
    12  O          0.59390000       0.63223000       0.00495000
    13  C          0.24320000       0.52210000       0.84977000
    14  C          0.75680000       0.47790000       0.15023000
    15  C          0.40220000       0.53410000       0.77708000
    16  C          0.59780000       0.46590000       0.22292000
    17  C          0.54720000       0.42810000       0.74577000
    18  C          0.45280000       0.57190000       0.25423000
    19  C          0.48620000       0.31810000       0.78378000
    20  C          0.51380000       0.68190000       0.21622000
    21  C          0.62520000       0.22010000       0.75688000
    22  C          0.37480000       0.77990000       0.24312000
    23  C          0.83220000       0.23089000       0.69038000
    24  C          0.16780000       0.76911000       0.30962000
    25  C          0.89420000       0.33510000       0.64998000
    26  C          0.10580000       0.66490000       0.35002000
    27  C          0.75720000       0.43210000       0.67988000
    28  C          0.24280000       0.56790000       0.32012000
    29  C          0.44220000       0.64410000       0.72399000
    30  C          0.55780000       0.35590000       0.27601000
    31  C          0.55930000       0.72110000       0.76489000
    32  C          0.44070000       0.27890000       0.23511000
    33  C          0.58930000       0.83110000       0.71810000
    34  C          0.41070000       0.16890000       0.28190000
    35  C          0.49830000       0.85610000       0.62810000
    36  C          0.50170000       0.14390000       0.37190000
    37  C          0.38330000       0.78110000       0.58919000
    38  C          0.61670000       0.21890000       0.41081000
    39  C          0.35530000       0.67610000       0.63409000
    40  C          0.64470000       0.32390000       0.36591000
    41  H          0.14470000       0.59040000       0.87130000
    42  H          0.85530000       0.40960000       0.12870000
    43  H          0.50200000       0.14980000       0.77710000
    44  H          0.49800000       0.85020000       0.22290000
    45  H          0.81180000       0.50640000       0.65230000
    46  H          0.18820000       0.49360000       0.34770000
    47  H          0.54400000       0.73020000       0.83150000
    48  H          0.45600000       0.26980000       0.16850000
    49  H          0.66740000       0.88670000       0.75350000
    50  H          0.33260000       0.11330000       0.24650000
    51  H          0.53220000       0.93520000       0.59490000
    52  H          0.46780000       0.06480000       0.40510000
    53  H          0.28900000       0.78500000       0.52370000
    54  H          0.71100000       0.21500000       0.47630000
    55  H          0.28840000       0.62300000       0.60740000
    56  H          0.71160000       0.37700000       0.39260000
    57  H          0.62040000       0.38660000       0.98500000
    58  H          0.37960000       0.61340000       0.01500000
    59  O          0.81520000       0.00149000       0.92827000
    60  O          0.18480000      -0.00149000       0.07173000
    61  C          0.79530000       0.08710000       0.97910000
    62  C          0.20470000       0.91290000       0.02090000
    63  C          0.09940000       0.94890000       0.92810000
    64  C          0.90060000       0.05110000       0.07190000
    65  H          0.60380000       0.12310000       0.98720000
    66  H          0.39620000       0.87690000       0.01280000
    67  H          0.90570000       0.14890000       0.95820000
    68  H          0.09430000       0.85110000       0.04180000
    69  H          0.12440000       0.89060000       0.88710000
    70  H          0.87560000       0.10940000       0.11290000
    71  H          0.22830000       0.00490000       0.90120000
    72  H          0.77170000      -0.00490000       0.09880000
