data_UCANOE
_symmetry_space_group_name_H-M    'P1'
_symmetry_Int_Tables_number       1
loop_
_symmetry_equiv_pos_site_id
_symmetry_equiv_pos_as_xyz
1 x,y,z
_cell_length_a                   4.640212
_cell_length_b                   13.1683
_cell_length_c                   13.5033
_cell_angle_alpha                90.0
_cell_angle_beta                 90.0
_cell_angle_gamma                90.0
loop_
_atom_site_label
_atom_site_type_symbol
_atom_site_fract_x
_atom_site_fract_y
_atom_site_fract_z
     1  S          0.42781700       0.21072300       0.25000000
     2  S          0.57218300       0.78927700       0.75000000
     3  S          0.57218300       0.71072300       0.25000000
     4  S          0.42781700       0.28927700       0.75000000
     5  F          0.57754130       0.15562500       0.16284500
     6  F          0.42245870       0.84437500       0.66284500
     7  F          0.42245870       0.65562500       0.33715500
     8  F          0.57754130       0.34437500       0.83715500
     9  F          0.42245870       0.84437500       0.83715500
    10  F          0.57754130       0.15562500       0.33715500
    11  F          0.57754130       0.34437500       0.66284500
    12  F          0.42245870       0.65562500       0.16284500
    13  F          0.70232000       0.29157700       0.25000000
    14  F          0.29768000       0.70842300       0.75000000
    15  F          0.29768000       0.79157700       0.25000000
    16  F          0.70232000       0.20842300       0.75000000
    17  F          0.18872000       0.11557700       0.25000000
    18  F          0.81128000       0.88442300       0.75000000
    19  F          0.81128000       0.61557700       0.25000000
    20  F          0.18872000       0.38442300       0.75000000
    21  C          0.26593000       0.42990800       0.39211900
    22  C          0.73407000       0.57009200       0.89211900
    23  C          0.73407000       0.92990800       0.10788100
    24  C          0.26593000       0.07009200       0.60788100
    25  C          0.73407000       0.57009200       0.60788100
    26  C          0.26593000       0.42990800       0.10788100
    27  C          0.26593000       0.07009200       0.89211900
    28  C          0.73407000       0.92990800       0.39211900
    29  H          0.08820000       0.44490000       0.35580000
    30  H          0.91180000       0.55510000       0.85580000
    31  H          0.91180000       0.94490000       0.14420000
    32  H          0.08820000       0.05510000       0.64420000
    33  H          0.91180000       0.55510000       0.64420000
    34  H          0.08820000       0.44490000       0.14420000
    35  H          0.08820000       0.05510000       0.85580000
    36  H          0.91180000       0.94490000       0.35580000
    37  H          0.43250000       0.44310000       0.34940000
    38  H          0.56750000       0.55690000       0.84940000
    39  H          0.56750000       0.94310000       0.15060000
    40  H          0.43250000       0.05690000       0.65060000
    41  H          0.56750000       0.55690000       0.65060000
    42  H          0.43250000       0.44310000       0.15060000
    43  H          0.43250000       0.05690000       0.84940000
    44  H          0.56750000       0.94310000       0.34940000
    45  H          0.27700000       0.47320000       0.45100000
    46  H          0.72300000       0.52680000       0.95100000
    47  H          0.72300000       0.97320000       0.04900000
    48  H          0.27700000       0.02680000       0.54900000
    49  H          0.72300000       0.52680000       0.54900000
    50  H          0.27700000       0.47320000       0.04900000
    51  H          0.27700000       0.02680000       0.95100000
    52  H          0.72300000       0.97320000       0.45100000
    53  O          0.26612150       0.32629500       0.42135500
    54  O          0.73387850       0.67370500       0.92135500
    55  O          0.73387850       0.82629500       0.07864500
    56  O          0.26612150       0.17370500       0.57864500
    57  O          0.73387850       0.67370500       0.57864500
    58  O          0.26612150       0.32629500       0.07864500
    59  O          0.26612150       0.17370500       0.92135500
    60  O          0.73387850       0.82629500       0.42135500
    61  C          0.03082000       0.30510800       0.48624700
    62  C          0.96918000       0.69489200       0.98624700
    63  C          0.96918000       0.80510800       0.01375300
    64  C          0.03082000       0.19489200       0.51375300
    65  C          0.96918000       0.69489200       0.51375300
    66  C          0.03082000       0.30510800       0.01375300
    67  C          0.03082000       0.19489200       0.98624700
    68  C          0.96918000       0.80510800       0.48624700
    69  H          0.84700000       0.32250000       0.45310000
    70  H          0.15300000       0.67750000       0.95310000
    71  H          0.15300000       0.82250000       0.04690000
    72  H          0.84700000       0.17750000       0.54690000
    73  H          0.15300000       0.67750000       0.54690000
    74  H          0.84700000       0.32250000       0.04690000
    75  H          0.84700000       0.17750000       0.95310000
    76  H          0.15300000       0.82250000       0.45310000
    77  H          0.04780000       0.34710000       0.54680000
    78  H          0.95220000       0.65290000       0.04680000
    79  H          0.95220000       0.84710000       0.95320000
    80  H          0.04780000       0.15290000       0.45320000
    81  H          0.95220000       0.65290000       0.45320000
    82  H          0.04780000       0.34710000       0.95320000
    83  H          0.04780000       0.15290000       0.04680000
    84  H          0.95220000       0.84710000       0.54680000
