data_UCANUK
_symmetry_space_group_name_H-M    'P1'
_symmetry_Int_Tables_number       1
loop_
_symmetry_equiv_pos_site_id
_symmetry_equiv_pos_as_xyz
1 x,y,z
_cell_length_a                   7.7925
_cell_length_b                   9.4335
_cell_length_c                   11.5867
_cell_angle_alpha                107.6696
_cell_angle_beta                 103.4516
_cell_angle_gamma                96.3587
loop_
_atom_site_label
_atom_site_type_symbol
_atom_site_fract_x
_atom_site_fract_y
_atom_site_fract_z
     1  S          0.69751600       0.63739500       0.02401400
     2  S          0.30248400       0.36260500       0.97598600
     3  F          0.87814150       0.68750140       0.12701110
     4  F          0.12185850       0.31249860       0.87298890
     5  F          0.74710180       0.70947140       0.93004890
     6  F          0.25289820       0.29052860       0.06995110
     7  F          0.64805190       0.80351140       0.09644120
     8  F          0.35194810       0.19648860       0.90355880
     9  F          0.77074190       0.48688140       0.95277880
    10  F          0.22925810       0.51311860       0.04722120
    11  S          0.71583600      -0.00662400       0.74210400
    12  S          0.28416400       0.00662400       0.25789600
    13  F          0.72411160       0.16429110       0.80863110
    14  F          0.27588840       0.83570890       0.19136890
    15  F          0.60345150       0.92647870       0.81388110
    16  F          0.39654850       0.07352130       0.18611890
    17  F          0.89711150       0.00776130       0.85841110
    18  F          0.10288850      -0.00776130       0.14158890
    19  F          0.52283160      -0.00897140       0.64374110
    20  F          0.47716840       0.00897140       0.35625890
    21  F          0.93936160       0.10105130       0.61782100
    22  F          0.06063840       0.89894870       0.38217900
    23  H          0.90740000       0.13740000       0.55130000
    24  H          0.09260000       0.86260000       0.44870000
    25  O          0.69765180       0.68347130       0.62122120
    26  O          0.30234820       0.31652870       0.37877880
    27  O          0.63417170       0.48763130       0.19514110
    28  O          0.36582830       0.51236870       0.80485890
    29  N          0.67668180       0.58929140       0.41023130
    30  N          0.32331820       0.41070860       0.58976870
    31  N          0.78859180       0.22122150       0.25074120
    32  N          0.21140820       0.77877850       0.74925880
    33  N          0.86544180       0.21735150       0.44804120
    34  N          0.13455820       0.78264850       0.55195880
    35  N          0.78413180       0.45833150       0.55027120
    36  N          0.21586820       0.54166850       0.44972880
    37  C          0.80132000       0.34605170       0.44776140
    38  C          0.19868000       0.65394830       0.55223860
    39  C          0.75242000       0.35233170       0.32784140
    40  C          0.24758000       0.64766830       0.67215860
    41  C          0.68292000       0.47593170       0.30039150
    42  C          0.31708000       0.52406830       0.69960850
    43  C          0.85392000       0.14536180       0.32636150
    44  C          0.14608000       0.85463820       0.67363850
    45  H          0.88850000       0.05040000       0.29700000
    46  H          0.11150000       0.94960000       0.70300000
    47  C          0.71832000       0.58282170       0.53272150
    48  C          0.28168000       0.41717830       0.46727850
    49  C          0.83582000       0.45130190       0.67882150
    50  C          0.16418000       0.54869810       0.32117850
    51  H          0.72720000       0.42790000       0.70390000
    52  H          0.27280000       0.57210000       0.29610000
    53  H          0.90780000       0.54940000       0.73770000
    54  H          0.09220000       0.45060000       0.26230000
    55  H          0.90670000       0.37200000       0.68040000
    56  H          0.09330000       0.62800000       0.31960000
    57  C          0.76222000       0.17482000       0.11416150
    58  C          0.23778000       0.82518000       0.88583850
    59  H          0.80300000       0.07900000       0.08520000
    60  H          0.19700000       0.92100000       0.91480000
    61  H          0.83170000       0.25330000       0.09470000
    62  H          0.16830000       0.74670000       0.90530000
    63  H          0.63420000       0.16130000       0.07120000
    64  H          0.36580000       0.83870000       0.92880000
    65  C          0.62402000       0.73139180       0.39859180
    66  C          0.37598000       0.26860820       0.60140820
    67  H          0.53190000       0.75600000       0.44240000
    68  H          0.46810000       0.24400000       0.55760000
    69  H          0.57560000       0.71820000       0.30920000
    70  H          0.42440000       0.28180000       0.69080000
    71  H          0.72960000       0.81410000       0.43650000
    72  H          0.27040000       0.18590000       0.56350000
