data_UCAPEW
_symmetry_space_group_name_H-M    'P1'
_symmetry_Int_Tables_number       1
loop_
_symmetry_equiv_pos_site_id
_symmetry_equiv_pos_as_xyz
1 x,y,z
_cell_length_a                   11.2254
_cell_length_b                   10.7984
_cell_length_c                   12.4354
_cell_angle_alpha                90.0
_cell_angle_beta                 97.0744
_cell_angle_gamma                90.0
loop_
_atom_site_label
_atom_site_type_symbol
_atom_site_fract_x
_atom_site_fract_y
_atom_site_fract_z
     1  S          0.79197500       0.12944500       0.44086500
     2  S          0.70802500       0.62944500       0.05913500
     3  S          0.20802500       0.87055500       0.55913500
     4  S          0.29197500       0.37055500       0.94086500
     5  F          0.87235150       0.06025170       0.36831140
     6  F          0.62764850       0.56025170       0.13168860
     7  F          0.12764850       0.93974830       0.63168860
     8  F          0.37235150       0.43974830       0.86831140
     9  F          0.86200150       0.09785190       0.55130130
    10  F          0.63799850       0.59785190       0.94869870
    11  F          0.13799850       0.90214810       0.44869870
    12  F          0.36200150       0.40214810       0.05130130
    13  F          0.88144170       0.25122180       0.43543160
    14  F          0.61855830       0.75122180       0.06456840
    15  F          0.11855830       0.74877820       0.56456840
    16  F          0.38144170       0.24877820       0.93543160
    17  F          0.71681180      -0.00014150       0.44871150
    18  F          0.78318820       0.49985850       0.05128850
    19  F          0.28318820       0.00014150       0.55128850
    20  F          0.21681180       0.50014150       0.94871150
    21  S          0.52556600       0.29627600       0.37436500
    22  S          0.97443400       0.79627600       0.12563500
    23  S          0.47443400       0.70372400       0.62563500
    24  S          0.02556600       0.20372400       0.87436500
    25  F          0.45907170       0.33628170       0.26344140
    26  F          0.04092830       0.83628170       0.23655860
    27  F          0.54092830       0.66371830       0.73655860
    28  F          0.95907170       0.16371830       0.76344140
    29  F          0.44944150       0.36924160       0.44838140
    30  F          0.05055850       0.86924160       0.05161860
    31  F          0.55055850       0.63075840       0.55161860
    32  F          0.94944150       0.13075840       0.94838140
    33  F          0.60794170       0.42237170       0.37026150
    34  F          0.89205830       0.92237170       0.12973850
    35  F          0.39205830       0.57762830       0.62973850
    36  F          0.10794170       0.07762830       0.87026150
    37  F          0.42580180       0.18330170       0.37430160
    38  F          0.07419820       0.68330170       0.12569840
    39  F          0.57419820       0.81669830       0.62569840
    40  F          0.92580180       0.31669830       0.87430160
    41  O          0.66207170       0.16954160       0.23661120
    42  O          0.83792830       0.66954160       0.26338880
    43  O          0.33792830       0.83045840       0.76338880
    44  O          0.16207170       0.33045840       0.73661120
    45  C          0.60502000       0.07192000       0.16972000
    46  C          0.89498000       0.57192000       0.33028000
    47  C          0.39498000       0.92808000       0.83028000
    48  C          0.10502000       0.42808000       0.66972000
    49  H          0.51700000       0.07380000       0.17090000
    50  H          0.98300000       0.57380000       0.32910000
    51  H          0.48300000       0.92620000       0.82910000
    52  H          0.01700000       0.42620000       0.67090000
    53  H          0.63560000      -0.01000000       0.19630000
    54  H          0.86440000       0.49000000       0.30370000
    55  H          0.36440000       0.01000000       0.80370000
    56  H          0.13560000       0.51000000       0.69630000
    57  C          0.63513000       0.09463000       0.05652000
    58  C          0.86487000       0.59463000       0.44348000
    59  C          0.36487000       0.90537000       0.94348000
    60  C          0.13513000       0.40537000       0.55652000
    61  H          0.69180000       0.03130000       0.03570000
    62  H          0.80820000       0.53130000       0.46430000
    63  H          0.30820000       0.96870000       0.96430000
    64  H          0.19180000       0.46870000       0.53570000
    65  H          0.56170000       0.09330000       0.00340000
    66  H          0.93830000       0.59330000       0.49660000
    67  H          0.43830000       0.90670000      -0.00340000
    68  H          0.06170000       0.40670000       0.50340000
    69  C          0.69124000       0.21974000       0.06223000
    70  C          0.80876000       0.71974000       0.43777000
    71  C          0.30876000       0.78026000       0.93777000
    72  C          0.19124000       0.28026000       0.56223000
    73  H          0.76010000       0.22130000       0.01950000
    74  H          0.73990000       0.72130000       0.48050000
    75  H          0.23990000       0.77870000       0.98050000
    76  H          0.26010000       0.27870000       0.51950000
    77  H          0.63210000       0.28260000       0.03200000
    78  H          0.86790000       0.78260000       0.46800000
    79  H          0.36790000       0.71740000       0.96800000
    80  H          0.13210000       0.21740000       0.53200000
    81  C          0.72994000       0.24543000       0.17062000
    82  C          0.77006000       0.74543000       0.32938000
    83  C          0.27006000       0.75457000       0.82938000
    84  C          0.22994000       0.25457000       0.67062000
    85  H          0.71720000       0.33410000       0.18580000
    86  H          0.78280000       0.83410000       0.31420000
    87  H          0.28280000       0.66590000       0.81420000
    88  H          0.21720000       0.16590000       0.68580000
    89  H          0.81660000       0.22700000       0.18710000
    90  H          0.68340000       0.72700000       0.31290000
    91  H          0.18340000       0.77300000       0.81290000
    92  H          0.31660000       0.27300000       0.68710000
    93  O          0.64497140       0.23807140       0.57821120
    94  O          0.85502860       0.73807140       0.92178880
    95  O          0.35502860       0.76192860       0.42178880
    96  O          0.14497140       0.26192860       0.07821120
    97  C          0.58292000       0.15522000       0.64360190
    98  C          0.91708000       0.65522000       0.85639810
    99  C          0.41708000       0.84478000       0.35639810
   100  C          0.08292000       0.34478000       0.14360190
   101  H          0.61020000       0.06890000       0.63580000
   102  H          0.88980000       0.56890000       0.86420000
   103  H          0.38980000       0.93110000       0.36420000
   104  H          0.11020000       0.43110000       0.13580000
   105  H          0.49510000       0.15900000       0.62160000
   106  H          0.00490000       0.65900000       0.87840000
   107  H          0.50490000       0.84100000       0.37840000
   108  H         -0.00490000       0.34100000       0.12160000
   109  C          0.61333000       0.19883000       0.75902000
   110  C          0.88667000       0.69883000       0.74098000
   111  C          0.38667000       0.80117000       0.24098000
   112  C          0.11333000       0.30117000       0.25902000
   113  H          0.68700000       0.15830000       0.79420000
   114  H          0.81300000       0.65830000       0.70580000
   115  H          0.31300000       0.84170000       0.20580000
   116  H          0.18700000       0.34170000       0.29420000
   117  H          0.54650000       0.18240000       0.80210000
   118  H          0.95350000       0.68240000       0.69790000
   119  H          0.45350000       0.81760000       0.19790000
   120  H          0.04650000       0.31760000       0.30210000
   121  C          0.63213000       0.33633000       0.74542000
   122  C          0.86787000       0.83633000       0.75458000
   123  C          0.36787000       0.66367000       0.25458000
   124  C          0.13213000       0.16367000       0.24542000
   125  H          0.55480000       0.38140000       0.73580000
   126  H          0.94520000       0.88140000       0.76420000
   127  H          0.44520000       0.61860000       0.26420000
   128  H          0.05480000       0.11860000       0.23580000
   129  H          0.68400000       0.37130000       0.80820000
   130  H          0.81600000       0.87130000       0.69180000
   131  H          0.31600000       0.62870000       0.19180000
   132  H          0.18400000       0.12870000       0.30820000
   133  C          0.69302000       0.34082000       0.64408180
   134  C          0.80698000       0.84082000       0.85591820
   135  C          0.30698000       0.65918000       0.35591820
   136  C          0.19302000       0.15918000       0.14408180
   137  H          0.67560000       0.42010000       0.60540000
   138  H          0.82440000       0.92010000       0.89460000
   139  H          0.32440000       0.57990000       0.39460000
   140  H          0.17560000       0.07990000       0.10540000
   141  H          0.78100000       0.33240000       0.66210000
   142  H          0.71900000       0.83240000       0.83790000
   143  H          0.21900000       0.66760000       0.33790000
   144  H          0.28100000       0.16760000       0.16210000
