data_UCASOJ
_symmetry_space_group_name_H-M    'P1'
_symmetry_Int_Tables_number       1
loop_
_symmetry_equiv_pos_site_id
_symmetry_equiv_pos_as_xyz
1 x,y,z
_cell_length_a                   4.65643
_cell_length_b                   12.78129
_cell_length_c                   14.27649
_cell_angle_alpha                104.5092
_cell_angle_beta                 96.0862
_cell_angle_gamma                97.1862
loop_
_atom_site_label
_atom_site_type_symbol
_atom_site_fract_x
_atom_site_fract_y
_atom_site_fract_z
     1  I          0.67930500       0.40325200       0.56658200
     2  I          0.32069500       0.59674800       0.43341800
     3  I          0.64668500       0.33708200       0.29552200
     4  I          0.35331500       0.66291800       0.70447800
     5  F         -0.03014000       0.13504170       0.23976150
     6  F          0.03014000       0.86495830       0.76023850
     7  F          0.26366000       0.02405190       0.34346170
     8  F          0.73634000       0.97594810       0.65653830
     9  F          0.28915000       0.07356180       0.54096170
    10  F          0.71085000       0.92643820       0.45903830
    11  F          0.01225000       0.23120180       0.63358140
    12  F         -0.01225000       0.76879820       0.36641860
    13  C          0.85378000       0.27313000       0.48542000
    14  C          0.14622000       0.72687000       0.51458000
    15  C          0.84248000       0.24863000       0.38353000
    16  C          0.15752000       0.75137000       0.61647000
    17  C         -0.02221000       0.16323000       0.33763000
    18  C          0.02221000       0.83677000       0.66237000
    19  C          0.12789000       0.10493000       0.38973000
    20  C          0.87211000       0.89507000       0.61027000
    21  C          0.14118000       0.12943000       0.48903000
    22  C          0.85882000       0.87057000       0.51097000
    23  C         -0.00112000       0.21143000       0.53572000
    24  C          0.00112000       0.78857000       0.46428000
    25  O          0.47496000       0.45674190       0.16133170
    26  O          0.52504000       0.54325810       0.83866830
    27  N          0.00627000       0.41403000       0.08312000
    28  N         -0.00627000       0.58597000       0.91688000
    29  H          0.85320000       0.43630000       0.08830000
    30  H          0.14680000       0.56370000       0.91170000
    31  N          0.21647000       0.59352000       0.14742000
    32  N          0.78353000       0.40648000       0.85258000
    33  H          0.06580000       0.60630000       0.12430000
    34  H          0.93420000       0.39370000       0.87570000
    35  N          0.72007000       0.69942000       0.06662000
    36  N          0.27993000       0.30058000       0.93338000
    37  C          0.24648000       0.48703000       0.13292000
    38  C          0.75352000       0.51297000       0.86708000
    39  C          0.45029000       0.68133000       0.19962000
    40  C          0.54971000       0.31867000       0.80038000
    41  H          0.61180000       0.64960000       0.22730000
    42  H          0.38820000       0.35040000       0.77270000
    43  H          0.37690000       0.72940000       0.25470000
    44  H          0.62310000       0.27060000       0.74530000
    45  C          0.56738000       0.74933000       0.13522000
    46  C          0.43262000       0.25067000       0.86478000
    47  C          0.51699000       0.85573000       0.14663000
    48  C          0.48301000       0.14427000       0.85337000
    49  H          0.41210000       0.88880000       0.19670000
    50  H          0.58790000       0.11120000       0.80330000
    51  C          0.62239000       0.91353000       0.08363000
    52  C          0.37761000       0.08647000       0.91637000
    53  H          0.59220000      -0.01300000       0.09000000
    54  H          0.40780000       0.01300000       0.91000000
    55  C          0.77109000       0.86213000       0.01163000
    56  C          0.22891000       0.13787000       0.98837000
    57  H          0.84090000       0.89910000       0.96650000
    58  H          0.15910000       0.10090000       0.03350000
    59  C          0.81838000       0.75483000       0.00532000
    60  C          0.18162000       0.24517000      -0.00532000
    61  C         -0.00722000       0.70153000       0.92848000
    62  C          0.00722000       0.29847000       0.07152000
    63  H          0.91320000       0.71200000       0.86500000
    64  H          0.08680000       0.28800000       0.13500000
    65  H          0.19730000       0.73970000       0.94530000
    66  H          0.80270000       0.26030000       0.05470000
