data_UCASUP
_symmetry_space_group_name_H-M    'P1'
_symmetry_Int_Tables_number       1
loop_
_symmetry_equiv_pos_site_id
_symmetry_equiv_pos_as_xyz
1 x,y,z
_cell_length_a                   4.56135
_cell_length_b                   10.229611
_cell_length_c                   13.730315
_cell_angle_alpha                80.2803
_cell_angle_beta                 83.6933
_cell_angle_gamma                87.8143
loop_
_atom_site_label
_atom_site_type_symbol
_atom_site_fract_x
_atom_site_fract_y
_atom_site_fract_z
     1  I          0.82415600       0.83138800       0.20488200
     2  I          0.17584400       0.16861200       0.79511800
     3  F          0.80645000       0.13758180       0.10574140
     4  F          0.19355000       0.86241820       0.89425860
     5  F          0.54075000       0.26686180       0.95440860
     6  F          0.45925000       0.73313820       0.04559140
     7  C          0.63748000       0.93157000       0.08072000
     8  C          0.36252000       0.06843000       0.91928000
     9  C          0.65348000       0.06733000       0.05462000
    10  C          0.34652000       0.93267000       0.94538000
    11  C          0.51778000       0.13443000       0.97568000
    12  C          0.48222000       0.86557000       0.02432000
    13  O          0.07275000       0.70042000       0.37552160
    14  O          0.92725000       0.29958000       0.62447840
    15  N          0.42377000       0.54293000       0.34822000
    16  N          0.57623000       0.45707000       0.65178000
    17  H          0.57610000       0.50840000       0.36530000
    18  H          0.42390000       0.49160000       0.63470000
    19  N          0.47617000       0.68053000       0.45982000
    20  N          0.52383000       0.31947000       0.54018000
    21  H          0.63990000       0.66140000       0.45230000
    22  H          0.36010000       0.33860000       0.54770000
    23  N          0.04926000       0.65803000       0.61980190
    24  N          0.95074000       0.34197000       0.38019810
    25  C          0.31268000       0.64353000       0.39272000
    26  C          0.68732000       0.35647000       0.60728000
    27  C          0.39448000       0.79753000       0.50212000
    28  C          0.60552000       0.20247000       0.49788000
    29  H          0.33230000       0.86750000       0.44880000
    30  H          0.66770000       0.13250000       0.55120000
    31  H          0.57110000       0.82930000       0.52620000
    32  H          0.42890000       0.17070000       0.47380000
    33  C          0.15178000       0.78023000       0.58612000
    34  C          0.84822000       0.21977000       0.41388000
    35  C          0.04088000       0.89013000       0.62663000
    36  C          0.95912000       0.10987000       0.37337000
    37  H          0.11730000       0.97560000       0.60120000
    38  H          0.88270000       0.02440000       0.39880000
    39  C          0.81952000       0.87363000       0.70373000
    40  C          0.18048000       0.12637000       0.29627000
    41  H          0.74340000       0.94740000       0.73300000
    42  H          0.25660000       0.05260000       0.26700000
    43  C          0.70982000       0.74903000       0.73803000
    44  C          0.29018000       0.25097000       0.26197000
    45  H          0.55470000       0.73560000       0.79060000
    46  H          0.44530000       0.26440000       0.20940000
    47  C          0.82882000       0.64403000       0.69482000
    48  C          0.17118000       0.35597000       0.30518000
    49  C          0.71482000       0.50563000       0.72832000
    50  C          0.28518000       0.49437000       0.27168000
    51  H          0.88080000       0.44510000       0.74770000
    52  H          0.11920000       0.55490000       0.25230000
    53  H          0.57000000       0.50490000       0.78760000
    54  H          0.43000000       0.49510000       0.21240000
