data_UCAXII
_symmetry_space_group_name_H-M    'P1'
_symmetry_Int_Tables_number       1
loop_
_symmetry_equiv_pos_site_id
_symmetry_equiv_pos_as_xyz
1 x,y,z
_cell_length_a                   9.41022
_cell_length_b                   7.837901
_cell_length_c                   24.02494
_cell_angle_alpha                90.0
_cell_angle_beta                 95.13201
_cell_angle_gamma                90.0
loop_
_atom_site_label
_atom_site_type_symbol
_atom_site_fract_x
_atom_site_fract_y
_atom_site_fract_z
     1  O          0.80952100       0.30101130       0.94927600
     2  O          0.69047900       0.80101130       0.55072400
     3  O          0.19047900       0.69898870       0.05072400
     4  O          0.30952100       0.19898870       0.44927600
     5  C          0.63052160       0.18072000       0.86724400
     6  C          0.86947840       0.68072000       0.63275600
     7  C          0.36947840       0.81928000       0.13275600
     8  C          0.13052160       0.31928000       0.36724400
     9  H          0.68860000       0.21910000       0.83880000
    10  H          0.81140000       0.71910000       0.66120000
    11  H          0.31140000       0.78090000       0.16120000
    12  H          0.18860000       0.28090000       0.33880000
    13  H          0.53210000       0.18090000       0.85280000
    14  H          0.96790000       0.68090000       0.64720000
    15  H          0.46790000       0.81910000       0.14720000
    16  H          0.03210000       0.31910000       0.35280000
    17  H          0.65830000       0.06710000       0.87850000
    18  H          0.84170000       0.56710000       0.62150000
    19  H          0.34170000       0.93290000       0.12150000
    20  H          0.15830000       0.43290000       0.37850000
    21  C          0.55337140       0.20221180       0.97230400
    22  C          0.94662860       0.70221180       0.52769600
    23  C          0.44662860       0.79778820       0.02769600
    24  C          0.05337140       0.29778820       0.47230400
    25  H          0.59650000       0.09230000       0.97910000
    26  H          0.90350000       0.59230000       0.52090000
    27  H          0.40350000       0.90770000       0.02090000
    28  H          0.09650000       0.40770000       0.47910000
    29  H          0.45760000       0.18780000       0.95560000
    30  H          0.04240000       0.68780000       0.54440000
    31  H          0.54240000       0.81220000       0.04440000
    32  H          0.95760000       0.31220000       0.45560000
    33  H          0.55170000       0.26260000       0.00700000
    34  H          0.94830000       0.76260000       0.49300000
    35  H          0.44830000       0.73740000       0.99300000
    36  H          0.05170000       0.23740000       0.50700000
    37  S          0.65411300       0.32062400       0.92631800
    38  S          0.84588700       0.82062400       0.57368200
    39  S          0.34588700       0.67937600       0.07368200
    40  S          0.15411300       0.17937600       0.42631800
    41  H          0.92630000       0.16040000       0.92338900
    42  H          0.57370000       0.66040000       0.57661100
    43  H          0.07370000       0.83960000       0.07661100
    44  H          0.42630000       0.33960000       0.42338900
    45  C          0.16407140       0.96166830       0.86857500
    46  C          0.33592860       0.46166830       0.63142500
    47  C          0.83592860       0.03833170       0.13142500
    48  C          0.66407140       0.53833170       0.36857500
    49  C          0.30249150       0.89678820       0.87741400
    50  C          0.19750850       0.39678820       0.62258600
    51  C          0.69750850       0.10321180       0.12258600
    52  C          0.80249150       0.60321180       0.37741400
    53  H          0.35570000       0.91540000       0.91140000
    54  H          0.14430000       0.41540000       0.58860000
    55  H          0.64430000       0.08460000       0.08860000
    56  H          0.85570000       0.58460000       0.41140000
    57  C          0.36083170       0.80478000       0.83573300
    58  C          0.13916830       0.30478000       0.66426700
    59  C          0.63916830       0.19522000       0.16426700
    60  C          0.86083170       0.69522000       0.33573300
    61  H          0.45280000       0.76120000       0.84190000
    62  H          0.04720000       0.26120000       0.65810000
    63  H          0.54720000       0.23880000       0.15810000
    64  H          0.95280000       0.73880000       0.34190000
    65  C          0.28182190       0.77748000       0.78471300
    66  C          0.21817810       0.27748000       0.71528700
    67  C          0.71817810       0.22252000       0.21528700
    68  C          0.78182190       0.72252000       0.28471300
    69  H          0.32060000       0.71530000       0.75680000
    70  H          0.17940000       0.21530000       0.74320000
    71  H          0.67940000       0.28470000       0.24320000
    72  H          0.82060000       0.78470000       0.25680000
    73  C          0.14512190       0.84358000       0.77575400
    74  C          0.35487810       0.34358000       0.72424600
    75  C          0.85487810       0.15642000       0.22424600
    76  C          0.64512190       0.65642000       0.27575400
    77  H          0.09270000       0.82650000       0.74150000
    78  H          0.40730000       0.32650000       0.75850000
    79  H          0.90730000       0.17350000       0.25850000
    80  H          0.59270000       0.67350000       0.24150000
    81  C          0.08569160       0.93528810       0.81744400
    82  C          0.41430840       0.43528810       0.68255600
    83  C          0.91430840       0.06471190       0.18255600
    84  C          0.58569160       0.56471190       0.31744400
    85  H         -0.00630000       0.97890000       0.81120000
    86  H          0.50630000       0.47890000       0.68880000
    87  H          0.00630000       0.02110000       0.18880000
    88  H          0.49370000       0.52110000       0.31120000
    89  C          0.09831140       0.05797160       0.91310500
    90  C          0.40168860       0.55797160       0.58689500
    91  C          0.90168860       0.94202840       0.08689500
    92  C          0.59831140       0.44202840       0.41310500
    93  C          0.18067140       0.22591170       0.04290500
    94  C          0.31932860       0.72591170       0.45709500
    95  C          0.81932860       0.77408830       0.95709500
    96  C          0.68067140       0.27408830       0.54290500
    97  C          0.09977140       0.32724160       0.08241500
    98  C          0.40022860       0.82724160       0.41758500
    99  C          0.90022860       0.67275840       0.91758500
   100  C          0.59977140       0.17275840       0.58241500
   101  C          0.96136140       0.38661160       0.06912500
   102  C          0.53863860       0.88661160       0.43087500
   103  C          0.03863860       0.61338840       0.93087500
   104  C          0.46136140       0.11338840       0.56912500
   105  H          0.91260000       0.36400000       0.03450000
   106  H          0.58740000       0.86400000       0.46550000
   107  H          0.08740000       0.63600000       0.96550000
   108  H          0.41260000       0.13600000       0.53450000
   109  C          0.89890140       0.48081170       0.10937600
   110  C          0.60109860       0.98081170       0.39062400
   111  C          0.10109860       0.51918830       0.89062400
   112  C          0.39890140       0.01918830       0.60937600
   113  C          0.96660150       0.51965180       0.16118600
   114  C          0.53339850       0.01965180       0.33881400
   115  C          0.03339850       0.48034820       0.83881400
   116  C          0.46660150       0.98034820       0.66118600
   117  H          0.92210000       0.58320000       0.18730000
   118  H          0.57790000       0.08320000       0.31270000
   119  H          0.07790000       0.41680000       0.81270000
   120  H          0.42210000       0.91680000       0.68730000
   121  C          0.10410150       0.45889190       0.17197500
   122  C          0.39589850       0.95889190       0.32802500
   123  C          0.89589850       0.54110810       0.82802500
   124  C          0.60410150       0.04110810       0.67197500
   125  C          0.17185140       0.36209180       0.13412600
   126  C          0.32814860       0.86209180       0.36587400
   127  C          0.82814860       0.63790820       0.86587400
   128  C          0.67185140       0.13790820       0.63412600
   129  H          0.26380000       0.32120000       0.14310000
   130  H          0.23620000       0.82120000       0.35690000
   131  H          0.73620000       0.67880000       0.85690000
   132  H          0.76380000       0.17880000       0.64310000
   133  N          0.18181120       0.10301160       0.95581500
   134  N          0.31818880       0.60301160       0.54418500
   135  N          0.81818880       0.89698840       0.04418500
   136  N          0.68181120       0.39698840       0.45581500
   137  N          0.75100130       0.54184150       0.09702500
   138  N          0.74899870       0.04184150       0.40297500
   139  N          0.24899870       0.45815850       0.90297500
   140  N          0.25100130       0.95815850       0.59702500
   141  N          0.18122150       0.49839190       0.22644500
   142  N          0.31877850      -0.00160810       0.27355500
   143  N          0.81877850       0.50160810       0.77355500
   144  N          0.68122150       0.00160810       0.72644500
   145  O          0.95984110       0.08445150       0.90308600
   146  O          0.54015890       0.58445150       0.59691400
   147  O          0.04015890       0.91554850       0.09691400
   148  O          0.45984110       0.41554850       0.40308600
   149  O          0.10022100       0.19415130      -0.00551400
   150  O          0.39977900       0.69415130       0.50551400
   151  O          0.89977900       0.80584870       0.00551400
   152  O          0.60022100       0.30584870       0.49448600
   153  O          0.30194100       0.18018130       0.05384400
   154  O          0.19805900       0.68018130       0.44615600
   155  O          0.69805900       0.81981870       0.94615600
   156  O          0.80194100       0.31981870       0.55384400
   157  O          0.69068110       0.50966140       0.05113500
   158  O          0.80931890       0.00966140       0.44886500
   159  O          0.30931890       0.49033860       0.94886500
   160  O          0.19068110      -0.00966140       0.55113500
   161  O          0.69674120       0.62175150       0.13375400
   162  O          0.80325880       0.12175150       0.36624600
   163  O          0.30325880       0.37824850       0.86624600
   164  O          0.19674120       0.87824850       0.63375400
   165  O          0.11729170       0.56852000       0.26146500
   166  O          0.38270830       0.06852000       0.23853500
   167  O          0.88270830       0.43148000       0.73853500
   168  O          0.61729170       0.93148000       0.76146500
   169  O          0.30549160       0.45953000       0.23378600
   170  O          0.19450840       0.95953000       0.26621400
   171  O          0.69450840       0.54047000       0.76621400
   172  O          0.80549160       0.04047000       0.73378600
