data_UCAZIJ
_symmetry_space_group_name_H-M    'P1'
_symmetry_Int_Tables_number       1
loop_
_symmetry_equiv_pos_site_id
_symmetry_equiv_pos_as_xyz
1 x,y,z
_cell_length_a                   8.631011
_cell_length_b                   12.015714
_cell_length_c                   22.7673
_cell_angle_alpha                90.0
_cell_angle_beta                 90.0
_cell_angle_gamma                90.0
loop_
_atom_site_label
_atom_site_type_symbol
_atom_site_fract_x
_atom_site_fract_y
_atom_site_fract_z
     1  Br         0.28930700       0.18531400       0.89576800
     2  Br         0.21069300       0.81468600       0.39576800
     3  Br         0.78930700       0.31468600       0.10423200
     4  Br         0.71069300       0.68531400       0.60423200
     5  N          0.52773000       0.56552000       0.09652120
     6  N          0.97227000       0.43448000       0.59652120
     7  N          0.02773000       0.93448000       0.90347880
     8  N          0.47227000       0.06552000       0.40347880
     9  C          0.30874000       0.30303000       0.95101860
    10  C          0.19126000       0.69697000       0.45101860
    11  C          0.80874000       0.19697000       0.04898140
    12  C          0.69126000       0.80303000       0.54898140
    13  C          0.38744000       0.78152000       0.07241130
    14  C          0.11256000       0.21848000       0.57241130
    15  C          0.88744000       0.71848000       0.92758870
    16  C          0.61256000       0.28152000       0.42758870
    17  C          0.55594000       0.61403000       0.15308140
    18  C          0.94406000       0.38597000       0.65308140
    19  C          0.05594000       0.88597000       0.84691860
    20  C          0.44406000       0.11403000       0.34691860
    21  C          0.36103000       0.56493000       0.07697140
    22  C          0.13897000       0.43507000       0.57697140
    23  C          0.86103000       0.93507000       0.92302860
    24  C          0.63897000       0.06493000       0.42302860
    25  H          0.29420000       0.55010000       0.11090000
    26  H          0.20580000       0.44990000       0.61090000
    27  H          0.79420000       0.94990000       0.88910000
    28  H          0.70580000       0.05010000       0.38910000
    29  C          0.34024000       0.47313000       0.03223140
    30  C          0.15976000       0.52687000       0.53223140
    31  C          0.84024000       0.02687000       0.96776860
    32  C          0.65976000       0.97313000       0.46776860
    33  C          0.42494000       0.47383000       0.97995850
    34  C          0.07506000       0.52617000       0.47995850
    35  C          0.92494000       0.02617000       0.02004150
    36  C          0.57506000       0.97383000       0.52004150
    37  H          0.49260000       0.53220000       0.97230000
    38  H          0.00740000       0.46780000       0.47230000
    39  H         -0.00740000       0.96780000       0.02770000
    40  H          0.50740000       0.03220000       0.52770000
    41  C          0.23844000       0.38643000       0.04221150
    42  C          0.26156000       0.61357000       0.54221150
    43  C          0.73844000       0.11357000       0.95778850
    44  C          0.76156000       0.88643000       0.45778850
    45  H          0.17960000       0.38550000       0.07640000
    46  H          0.32040000       0.61450000       0.57640000
    47  H          0.67960000       0.11450000       0.92360000
    48  H          0.82040000       0.88550000       0.42360000
    49  N          0.23133000       0.81402000      -0.00544120
    50  N          0.26867000       0.18598000       0.49455880
    51  N          0.73133000       0.68598000       0.00544120
    52  N          0.76867000       0.31402000       0.50544120
    53  C          0.23174000       0.70113000       0.00580140
    54  C          0.26826000       0.29887000       0.50580140
    55  C          0.73174000       0.79887000      -0.00580140
    56  C          0.76826000       0.20113000       0.49419860
    57  H          0.17680000       0.64830000       0.98440000
    58  H          0.32320000       0.35170000       0.48440000
    59  H          0.67680000       0.85170000       0.01560000
    60  H          0.82320000       0.14830000       0.51560000
    61  C          0.54264000       0.72893000       0.16354140
    62  C          0.95736000       0.27107000       0.66354140
    63  C          0.04264000       0.77107000       0.83645860
    64  C          0.45736000       0.22893000       0.33645860
    65  C          0.60644000       0.54473000       0.19874150
    66  C          0.89356000       0.45527000       0.69874150
    67  C          0.10644000       0.95527000       0.80125850
    68  C          0.39356000       0.04473000       0.30125850
    69  H          0.61140000       0.46830000       0.19250000
    70  H          0.88860000       0.53170000       0.69250000
    71  H          0.11140000       0.03170000       0.80750000
    72  H          0.38860000       0.96830000       0.30750000
    73  C          0.32393000       0.67803000       0.05265130
    74  C          0.17607000       0.32197000       0.55265130
    75  C          0.82393000       0.82197000       0.94734870
    76  C          0.67607000       0.17803000       0.44734870
    77  C          0.37125000       0.97583000       0.03903160
    78  C          0.12875000       0.02417000       0.53903160
    79  C          0.87125000       0.52417000       0.96096840
    80  C          0.62875000       0.47583000       0.46096840
    81  H          0.33190000       0.02940000       0.01360000
    82  H          0.16810000       0.97060000       0.51360000
    83  H          0.83190000       0.47060000       0.98640000
    84  H          0.66810000       0.52940000       0.48640000
    85  C          0.48783000       0.81093000       0.11877130
    86  C          0.01217000       0.18907000       0.61877130
    87  C         -0.01217000       0.68907000       0.88122870
    88  C          0.51217000       0.31093000       0.38122870
    89  C          0.47415000       0.00293000       0.08294170
    90  C          0.02585000      -0.00293000       0.58294170
    91  C          0.97415000       0.49707000       0.91705830
    92  C          0.52585000       0.50293000       0.41705830
    93  H          0.50680000       0.07630000       0.08660000
    94  H         -0.00680000       0.92370000       0.58660000
    95  H          0.00680000       0.42370000       0.91340000
    96  H          0.49320000       0.57630000       0.41340000
    97  C          0.64005000       0.69884000       0.26383150
    98  C          0.85995000       0.30116000       0.76383150
    99  C          0.14005000       0.80116000       0.73616850
   100  C          0.35995000       0.19884000       0.23616850
   101  C          0.53114000       0.92293000       0.12243160
   102  C          0.96886000       0.07707000       0.62243160
   103  C          0.03114000       0.57707000       0.87756840
   104  C          0.46886000       0.42293000       0.37756840
   105  H          0.59950000       0.94490000       0.15180000
   106  H          0.90050000       0.05510000       0.65180000
   107  H          0.09950000       0.55510000       0.84820000
   108  H          0.40050000       0.44490000       0.34820000
   109  C          0.40954000       0.38903000       0.93955840
   110  C          0.09046000       0.61097000       0.43955840
   111  C          0.90954000       0.11097000       0.06044160
   112  C          0.59046000       0.88903000       0.56044160
   113  H          0.46670000       0.38990000       0.90490000
   114  H          0.03330000       0.61010000       0.40490000
   115  H          0.96670000       0.11010000       0.09510000
   116  H          0.53330000       0.88990000       0.59510000
   117  C          0.58394000       0.76753000       0.21959150
   118  C          0.91606000       0.23247000       0.71959150
   119  C          0.08394000       0.73247000       0.78040850
   120  C          0.41606000       0.26753000       0.28040850
   121  H          0.57330000       0.84310000       0.22750000
   122  H          0.92670000       0.15690000       0.72750000
   123  H          0.07330000       0.65690000       0.77250000
   124  H          0.42670000       0.34310000       0.27250000
   125  C          0.32874000       0.86483000       0.03453150
   126  C          0.17126000       0.13517000       0.53453150
   127  C          0.82874000       0.63517000       0.96546850
   128  C          0.67126000       0.36483000       0.46546850
   129  C          0.22275000       0.30023000       0.00173160
   130  C          0.27725000       0.69977000       0.50173160
   131  C          0.72275000       0.19977000      -0.00173160
   132  C          0.77725000       0.80023000       0.49826840
   133  H          0.15490000       0.24160000       0.00900000
   134  H          0.34510000       0.75840000       0.50900000
   135  H          0.65490000       0.25840000       0.99100000
   136  H          0.84510000       0.74160000       0.49100000
   137  C          0.64875000       0.58674000       0.25261160
   138  C          0.85125000       0.41326000       0.75261160
   139  C          0.14875000       0.91326000       0.74738840
   140  C          0.35125000       0.08674000       0.24738840
   141  H          0.68350000       0.53860000       0.28180000
   142  H          0.81650000       0.46140000       0.78180000
   143  H          0.18350000       0.96140000       0.71820000
   144  H          0.31650000       0.03860000       0.21820000
   145  C          0.68737000       0.74904000       0.32272000
   146  C          0.81263000       0.25096000       0.82272000
   147  C          0.18737000       0.75096000       0.67728000
   148  C          0.31263000       0.24904000       0.17728000
   149  H          0.59710000       0.75860000       0.34680000
   150  H          0.90290000       0.24140000       0.84680000
   151  H          0.09710000       0.74140000       0.65320000
   152  H          0.40290000       0.25860000       0.15320000
   153  H          0.73550000       0.81990000       0.31620000
   154  H          0.76450000       0.18010000       0.81620000
   155  H          0.23550000       0.68010000       0.68380000
   156  H          0.26450000       0.31990000       0.18380000
   157  H          0.75900000       0.70010000       0.34200000
   158  H          0.74100000       0.29990000       0.84200000
   159  H          0.25900000       0.79990000       0.65800000
   160  H          0.24100000       0.20010000       0.15800000
   161  H          0.57270000       0.50130000       0.10330000
   162  H          0.92730000       0.49870000       0.60330000
   163  H          0.07270000      -0.00130000       0.89670000
   164  H          0.42730000       0.00130000       0.39670000
   165  H          0.17660000       0.84850000       0.96680000
   166  H          0.32340000       0.15150000       0.46680000
   167  H          0.67660000       0.65150000       0.03320000
   168  H          0.82340000       0.34850000       0.53320000
   169  C          0.14928000       0.72927000       0.21813000
   170  C          0.35072000       0.27073000       0.71813000
   171  C          0.64928000       0.77073000       0.78187000
   172  C          0.85072000       0.22927000       0.28187000
   173  H          0.18910000       0.79960000       0.22590000
   174  H          0.31090000       0.20040000       0.72590000
   175  H          0.68910000       0.70040000       0.77410000
   176  H          0.81090000       0.29960000       0.27410000
   177  C          0.13968000       0.53448000       0.24183000
   178  C          0.36032000       0.46552000       0.74183000
   179  C          0.63968000       0.96552000       0.75817000
   180  C          0.86032000       0.03448000       0.25817000
   181  H          0.16830000       0.47350000       0.26460000
   182  H          0.33170000       0.52650000       0.76460000
   183  H          0.66830000       0.02650000       0.73540000
   184  H          0.83170000       0.97350000       0.23540000
   185  C         -0.00279000       0.80297000       0.13643000
   186  C          0.50279000       0.19703000       0.63643000
   187  C          0.49721000       0.69703000       0.86357000
   188  C          0.00279000       0.30297000       0.36357000
   189  H          0.01090000       0.78220000       0.09600000
   190  H          0.48910000       0.21780000       0.59600000
   191  H          0.51090000       0.71780000       0.90400000
   192  H         -0.01090000       0.28220000       0.40400000
   193  H          0.05810000       0.86790000       0.14470000
   194  H          0.44190000       0.13210000       0.64470000
   195  H          0.55810000       0.63210000       0.85530000
   196  H          0.94190000       0.36790000       0.35530000
   197  H          0.88990000       0.81870000       0.14360000
   198  H          0.61010000       0.18130000       0.64360000
   199  H          0.38990000       0.68130000       0.85640000
   200  H          0.11010000       0.31870000       0.35640000
   201  C          0.03668000       0.52277000       0.19464000
   202  C          0.46332000       0.47723000       0.69464000
   203  C          0.53668000       0.97723000       0.80536000
   204  C          0.96332000       0.02277000       0.30536000
   205  H         -0.00360000       0.45290000       0.18560000
   206  H          0.50360000       0.54710000       0.68560000
   207  H          0.49640000       0.04710000       0.81440000
   208  H          0.00360000       0.95290000       0.31440000
   209  C          0.19501000       0.63628000       0.25314000
   210  C          0.30499000       0.36372000       0.75314000
   211  C          0.69501000       0.86372000       0.74686000
   212  C          0.80499000       0.13628000       0.24686000
   213  H          0.26410000       0.64650000       0.28390000
   214  H          0.23590000       0.35350000       0.78390000
   215  H          0.76410000       0.85350000       0.71610000
   216  H          0.73590000       0.14650000       0.21610000
   217  C         -0.00447000       0.61096000       0.16233000
   218  C          0.50447000       0.38904000       0.66233000
   219  C          0.49553000       0.88904000       0.83767000
   220  C          0.00447000       0.11096000       0.33767000
   221  H          0.92870000       0.59990000       0.13080000
   222  H          0.57130000       0.40010000       0.63080000
   223  H          0.42870000       0.90010000       0.86920000
   224  H          0.07130000       0.09990000       0.36920000
   225  C          0.04598000       0.71426000       0.17313000
   226  C          0.45402000       0.28574000       0.67313000
   227  C          0.54598000       0.78574000       0.82687000
   228  C          0.95402000       0.21426000       0.32687000
