data_UCEGUI
_symmetry_space_group_name_H-M    'P1'
_symmetry_Int_Tables_number       1
loop_
_symmetry_equiv_pos_site_id
_symmetry_equiv_pos_as_xyz
1 x,y,z
_cell_length_a                   7.13075
_cell_length_b                   7.74247
_cell_length_c                   13.84577
_cell_angle_alpha                77.1656
_cell_angle_beta                 75.0845
_cell_angle_gamma                73.6627
loop_
_atom_site_label
_atom_site_type_symbol
_atom_site_fract_x
_atom_site_fract_y
_atom_site_fract_z
     1  I          0.78687900       0.37472100       0.48876400
     2  I          0.21312100       0.62527900       0.51123600
     3  N          0.27471200       0.18861000       0.03196000
     4  N          0.72528800       0.81139000       0.96804000
     5  N          0.68141200       0.97208900       0.63116000
     6  N          0.31858800       0.02791100       0.36884000
     7  O          0.73531300       0.82289000       0.68086000
     8  O          0.26468700       0.17711000       0.31914000
     9  O          0.66681500       0.00111200       0.54506000
    10  O          0.33318500      -0.00111200       0.45494000
    11  N          0.36721400       0.67521200       0.90367000
    12  N          0.63278600       0.32478800       0.09633000
    13  C          0.48991300       0.41131100       0.79836000
    14  C          0.51008700       0.58868900       0.20164000
    15  C          0.64871200       0.30041100       0.63945000
    16  C          0.35128800       0.69958900       0.36055000
    17  C          0.58561300       0.44271100       0.69747000
    18  C          0.41438700       0.55728900       0.30253000
    19  H          0.60860900       0.55980800       0.66749100
    20  H          0.39139100       0.44019200       0.33250900
    21  C          0.52461200       0.09681100       0.78836000
    22  C          0.47538800       0.90318900       0.21164000
    23  H          0.50773900       0.97825500       0.81936600
    24  H          0.49226100       0.02174500       0.18063400
    25  C          0.45881200       0.23731000       0.84386000
    26  C          0.54118800       0.76269000       0.15614000
    27  C          0.61501200       0.12881200       0.68746000
    28  C          0.38498800       0.87118800       0.31254000
    29  C          0.35591300       0.20641100       0.94896000
    30  C          0.64408700       0.79358900       0.05104000
    31  C          0.42191300       0.55821200       0.85617000
    32  C          0.57808700       0.44178800       0.14383000
    33  N          0.90811100       0.62961000       0.30176000
    34  N          0.09188900       0.37039000       0.69824000
    35  N          0.05001800       0.51820000       0.15781200
    36  N          0.94998200       0.48180000       0.84218800
    37  H          0.03287000       0.41050300       0.18998400
    38  H          0.96713000       0.58949700       0.81001600
    39  H          0.10676000       0.53233400       0.09299700
    40  H          0.89324000       0.46766600       0.90700300
    41  C          0.02391900       0.82961800       0.14861300
    42  C          0.97608100       0.17038200       0.85138700
    43  H          0.08883200       0.84167600       0.07918700
    44  H          0.91116800       0.15832400       0.92081300
    45  C          0.84181800       0.79251900       0.34771100
    46  C          0.15818200       0.20748100       0.65228900
    47  H          0.77900900       0.78016400       0.41742200
    48  H          0.22099100       0.21983600       0.58257800
    49  C         -0.00858400       0.65720000       0.20599000
    50  C          0.00858400       0.34280000       0.79401000
    51  C          0.95771900       0.97220000       0.19841100
    52  C          0.04228100       0.02780000       0.80158900
    53  H          0.97627300       0.08824200       0.16332400
    54  H          0.02372700       0.91175800       0.83667600
    55  C          0.86051900       0.95411700       0.30211100
    56  C          0.13948100       0.04588300       0.69788900
    57  H          0.81134400       0.05621200       0.33671400
    58  H          0.18865600       0.94378800       0.66328600
