data_UCEHIX
_symmetry_space_group_name_H-M    'P1'
_symmetry_Int_Tables_number       1
loop_
_symmetry_equiv_pos_site_id
_symmetry_equiv_pos_as_xyz
1 x,y,z
_cell_length_a                   13.4084517
_cell_length_b                   6.635337
_cell_length_c                   14.7080519
_cell_angle_alpha                90.0
_cell_angle_beta                 105.295314
_cell_angle_gamma                90.0
loop_
_atom_site_label
_atom_site_type_symbol
_atom_site_fract_x
_atom_site_fract_y
_atom_site_fract_z
     1  Br         0.21185200       0.47643400       0.33340200
     2  Br         0.78814800       0.97643400       0.16659800
     3  Br         0.78814800       0.52356600       0.66659800
     4  Br         0.21185200       0.02356600       0.83340200
     5  O          0.43994110       0.38583000       0.37351100
     6  O          0.56005890       0.88583000       0.12648900
     7  O          0.56005890       0.61417000       0.62648900
     8  O          0.43994110       0.11417000       0.87351100
     9  O          0.52168100       0.61492000       0.31568100
    10  O          0.47831900       0.11492000       0.18431900
    11  O          0.47831900       0.38508000       0.68431900
    12  O          0.52168100       0.88508000       0.81568100
    13  N          0.44821150       0.50412000       0.31263150
    14  N          0.55178850       0.00412000       0.18736850
    15  N          0.55178850       0.49588000       0.68736850
    16  N          0.44821150      -0.00412000       0.81263150
    17  N          0.37251130       0.57973000       0.90094870
    18  N          0.62748870       0.07973000       0.59905130
    19  N          0.62748870       0.42027000       0.09905130
    20  N          0.37251130       0.92027000       0.40094870
    21  N          0.06962150       0.52163000       0.89795850
    22  N          0.93037850       0.02163000       0.60204150
    23  N          0.93037850       0.47837000       0.10204150
    24  N          0.06962150       0.97837000       0.39795850
    25  C          0.31849160       0.53753000       0.05626160
    26  C          0.68150840       0.03753000       0.44373840
    27  C          0.68150840       0.46247000       0.94373840
    28  C          0.31849160       0.96247000       0.55626160
    29  C          0.18468170       0.50033000       0.13895170
    30  C          0.81531830       0.00033000       0.36104830
    31  C          0.81531830       0.49967000       0.86104830
    32  C          0.18468170      -0.00033000       0.63895170
    33  H          0.11358100       0.49060600       0.13748400
    34  H          0.88641900      -0.00939400       0.36251600
    35  H          0.88641900       0.50939400       0.86251600
    36  H          0.11358100       0.00939400       0.63748400
    37  C          0.34850150       0.55903000       0.96981850
    38  C          0.65149850       0.05903000       0.53018150
    39  C          0.65149850       0.44097000       0.03018150
    40  C          0.34850150       0.94097000       0.46981850
    41  C          0.13353170       0.52113000       0.96719830
    42  C          0.86646830       0.02113000       0.53280170
    43  C          0.86646830       0.47887000       0.03280170
    44  C          0.13353170       0.97887000       0.46719830
    45  C          0.36329170       0.51183000       0.22453160
    46  C          0.63670830       0.01183000       0.27546840
    47  C          0.63670830       0.48817000       0.77546840
    48  C          0.36329170      -0.01183000       0.72453160
    49  C          0.21332170       0.51973000       0.05509160
    50  C          0.78667830       0.01973000       0.44490840
    51  C          0.78667830       0.48027000       0.94490840
    52  C          0.21332170      -0.01973000       0.55509160
    53  C          0.39300170       0.53443000       0.14164170
    54  C          0.60699830       0.03443000       0.35835830
    55  C          0.60699830       0.46557000       0.85835830
    56  C          0.39300170       0.96557000       0.64164170
    57  H          0.46406100       0.54755000       0.14349100
    58  H          0.53593900       0.04755000       0.35650900
    59  H          0.53593900       0.45245000       0.85650900
    60  H          0.46406100       0.95245000       0.64349100
    61  C          0.25922160       0.49493000       0.22478160
    62  C          0.74077840      -0.00507000       0.27521840
    63  C          0.74077840       0.50507000       0.77521840
    64  C          0.25922160       0.00507000       0.72478160
    65  N          0.13690140       0.48242000       0.50554130
    66  N          0.86309860      -0.01758000      -0.00554130
    67  N          0.86309860       0.51758000       0.49445870
    68  N          0.13690140       0.01758000       0.00554130
    69  C          0.23982180       0.49703000       0.66677170
    70  C          0.76017820      -0.00297000       0.83322830
    71  C          0.76017820       0.50297000       0.33322830
    72  C          0.23982180       0.00297000       0.16677170
    73  H          0.30645300       0.49569900       0.70996800
    74  H          0.69354700      -0.00430100       0.79003200
    75  H          0.69354700       0.50430100       0.29003200
    76  H          0.30645300       0.00430100       0.20996800
    77  C          0.05063170       0.49943000       0.53673170
    78  C          0.94936830      -0.00057000       0.96326830
    79  C          0.94936830       0.50057000       0.46326830
    80  C          0.05063170       0.00057000       0.03673170
    81  C          0.22824170       0.48073000       0.57008170
    82  C          0.77175830      -0.01927000       0.92991830
    83  C          0.77175830       0.51927000       0.42991830
    84  C          0.22824170       0.01927000       0.07008170
    85  H          0.28890400       0.46771300       0.54872900
    86  H          0.71109600       0.96771300       0.95127100
    87  H          0.71109600       0.53228700       0.45127100
    88  H          0.28890400       0.03228700       0.04872900
    89  C          0.05543180       0.51653000       0.63183180
    90  C          0.94456820       0.01653000       0.86816820
    91  C          0.94456820       0.48347000       0.36816820
    92  C          0.05543180      -0.01653000       0.13183180
    93  H         -0.00616900       0.52915700       0.65173200
    94  H          0.00616900       0.02915700       0.84826800
    95  H          0.00616900       0.47084300       0.34826800
    96  H         -0.00616900       0.97084300       0.15173200
    97  C          0.15177180       0.51493000       0.69805160
    98  C          0.84822820       0.01493000       0.80194840
    99  C          0.84822820       0.48507000       0.30194840
   100  C          0.15177180      -0.01493000       0.19805160
   101  H          0.15657900       0.52604000       0.76346600
   102  H          0.84342100       0.02604000       0.73653400
   103  H          0.84342100       0.47396000       0.23653400
   104  H          0.15657900       0.97396000       0.26346600
