data_UCEHET
_symmetry_space_group_name_H-M    'P1'
_symmetry_Int_Tables_number       1
loop_
_symmetry_equiv_pos_site_id
_symmetry_equiv_pos_as_xyz
1 x,y,z
_cell_length_a                   7.66884
_cell_length_b                   16.05826
_cell_length_c                   13.86205
_cell_angle_alpha                90.0
_cell_angle_beta                 103.1744
_cell_angle_gamma                90.0
loop_
_atom_site_label
_atom_site_type_symbol
_atom_site_fract_x
_atom_site_fract_y
_atom_site_fract_z
     1  I          0.40965200       0.60473200       0.62010200
     2  I          0.59034800       0.10473200       0.87989800
     3  I          0.59034800       0.39526800       0.37989800
     4  I          0.40965200       0.89526800       0.12010200
     5  O          0.00782000       0.63997120       0.53858140
     6  O         -0.00782000       0.13997120       0.96141860
     7  O         -0.00782000       0.36002880       0.46141860
     8  O          0.00782000       0.86002880       0.03858140
     9  N         -0.00602000       0.71083120       0.56561140
    10  N          0.00602000       0.21083120       0.93438860
    11  N          0.00602000       0.28916880       0.43438860
    12  N         -0.00602000       0.78916880       0.06561140
    13  O          0.85568000       0.74327130       0.57642140
    14  O          0.14432000       0.24327130       0.92357860
    15  O          0.14432000       0.25672870       0.42357860
    16  O          0.85568000       0.75672870       0.07642140
    17  N          0.72263000       0.96804140       0.64272180
    18  N          0.27737000       0.46804140       0.85727820
    19  N          0.27737000       0.03195860       0.35727820
    20  N          0.72263000       0.53195860       0.14272180
    21  N          0.22133000       0.06457140       0.59123170
    22  N          0.77867000       0.56457140       0.90876830
    23  N          0.77867000       0.93542860       0.40876830
    24  N          0.22133000       0.43542860       0.09123170
    25  C          0.12433000       0.85006140       0.58146160
    26  C          0.87567000       0.35006140       0.91853840
    27  C          0.87567000       0.14993860       0.41853840
    28  C          0.12433000       0.64993860       0.08146160
    29  H          0.00778700       0.87039900       0.56909000
    30  H         -0.00778700       0.37039900       0.93091000
    31  H         -0.00778700       0.12960100       0.43091000
    32  H          0.00778700       0.62960100       0.06909000
    33  C          0.32923000       0.73066130       0.60526150
    34  C          0.67077000       0.23066130       0.89473850
    35  C          0.67077000       0.26933870       0.39473850
    36  C          0.32923000       0.76933870       0.10526150
    37  C          0.26843000       0.90473140       0.59665160
    38  C          0.73157000       0.40473140       0.90334840
    39  C          0.73157000       0.09526860       0.40334840
    40  C          0.26843000       0.59526860       0.09665160
    41  C          0.44373000       0.87218140       0.61587150
    42  C          0.55627000       0.37218140       0.88412850
    43  C          0.55627000       0.12781860       0.38412850
    44  C          0.44373000       0.62781860       0.11587150
    45  C          0.47103000       0.78730140       0.62050160
    46  C          0.52897000       0.28730140       0.87949840
    47  C          0.52897000       0.21269860       0.37949840
    48  C          0.47103000       0.71269860       0.12050160
    49  H          0.58768700       0.76708900       0.63422200
    50  H          0.41231300       0.26708900       0.86577800
    51  H          0.41231300       0.23291100       0.36577800
    52  H          0.58768700       0.73291100       0.13422200
    53  C          0.15582000       0.76426130       0.58491150
    54  C          0.84418000       0.26426130       0.91508850
    55  C          0.84418000       0.23573870       0.41508850
    56  C          0.15582000       0.73573870       0.08491150
    57  C          0.59723000       0.92723150       0.63081180
    58  C          0.40277000       0.42723150       0.86918820
    59  C          0.40277000       0.07276850       0.36918820
    60  C          0.59723000       0.57276850       0.13081180
    61  C          0.24033000      -0.00644840       0.59342170
    62  C          0.75967000       0.49355160       0.90657830
    63  C          0.75967000       0.00644840       0.40657830
    64  C          0.24033000       0.50644840       0.09342170
    65  N          0.55003000       0.44358130       0.63943140
    66  N          0.44997000       0.94358130       0.86056860
    67  N          0.44997000       0.55641870       0.36056860
    68  N          0.55003000       0.05641870       0.13943140
    69  C          0.41823000       0.38234150       0.62120170
    70  C          0.58177000       0.88234150       0.87879830
    71  C          0.58177000       0.61765850       0.37879830
    72  C          0.41823000       0.11765850       0.12120170
    73  H          0.29875500       0.39862900       0.60807100
    74  H          0.70124500       0.89862900       0.89192900
    75  H          0.70124500       0.60137100       0.39192900
    76  H          0.29875500       0.10137100       0.10807100
    77  C          0.71963000       0.42132150       0.65594170
    78  C          0.28037000       0.92132150       0.84405830
    79  C          0.28037000       0.57867850       0.34405830
    80  C          0.71963000       0.07867850       0.15594170
    81  C          0.77273000       0.33556140       0.65991160
    82  C          0.22727000       0.83556140       0.84008840
    83  C          0.22727000       0.66443860       0.34008840
    84  C          0.77273000       0.16443860       0.15991160
    85  C          0.68954000       0.18858150       0.64541170
    86  C          0.31046000       0.68858150       0.85458830
    87  C          0.31046000       0.81141850       0.35458830
    88  C          0.68954000       0.31141850       0.14541170
    89  H          0.60205900       0.14736300       0.63357500
    90  H          0.39794100       0.64736300       0.86642500
    91  H          0.39794100       0.85263700       0.36642500
    92  H          0.60205900       0.35263700       0.13357500
    93  C          0.85474000       0.48919150       0.66902000
    94  C          0.14526000       0.98919150       0.83098000
    95  C          0.14526000       0.51080850       0.33098000
    96  C          0.85474000       0.01080850       0.16902000
    97  H          0.91246100       0.48877300       0.61435800
    98  H          0.08753900       0.98877300       0.88564200
    99  H          0.08753900       0.51122700       0.38564200
   100  H          0.91246100       0.01122700       0.11435800
   101  H          0.94246200       0.48079600       0.72969000
   102  H          0.05753800       0.98079600       0.77031000
   103  H          0.05753800       0.51920400       0.27031000
   104  H          0.94246200       0.01920400       0.22969000
   105  H          0.79651200       0.54185100       0.67120900
   106  H          0.20348800       0.04185100       0.82879100
   107  H          0.20348800       0.45814900       0.32879100
   108  H          0.79651200       0.95814900       0.17120900
   109  C          0.95673000       0.31046160       0.68105170
   110  C          0.04327000       0.81046160       0.81894830
   111  C          0.04327000       0.68953840       0.31894830
   112  C          0.95673000       0.18953840       0.18105170
   113  H          0.04682600       0.35045300       0.69286600
   114  H          0.95317400       0.85045300       0.80713400
   115  H          0.95317400       0.64954700       0.30713400
   116  H          0.04682600       0.14954700       0.19286600
   117  C          0.63883000       0.27270160       0.64231160
   118  C          0.36117000       0.77270160       0.85768840
   119  C          0.36117000       0.72729840       0.35768840
   120  C          0.63883000       0.22729840       0.14231160
   121  C          0.86494000       0.16693150       0.66549170
   122  C          0.13506000       0.66693150       0.83450830
   123  C          0.13506000       0.83306850       0.33450830
   124  C          0.86494000       0.33306850       0.16549170
   125  H          0.89608700       0.11090500       0.66712300
   126  H          0.10391300       0.61090500       0.83287700
   127  H          0.10391300       0.88909500       0.33287700
   128  H          0.89608700       0.38909500       0.16712300
   129  C          0.00023000       0.22759160       0.68387180
   130  C         -0.00023000       0.72759160       0.81612820
   131  C         -0.00023000       0.77240840       0.31612820
   132  C          0.00023000       0.27240840       0.18387180
   133  H          0.11982900       0.21147000       0.69802500
   134  H          0.88017100       0.71147000       0.80197500
   135  H          0.88017100       0.78853000       0.30197500
   136  H          0.11982900       0.28853000       0.19802500
   137  C          0.45683000       0.29964160       0.62175170
   138  C          0.54317000       0.79964160       0.87824830
   139  C          0.54317000       0.70035840       0.37824830
   140  C          0.45683000       0.20035840       0.12175170
   141  H          0.36462900       0.26069900       0.60875300
   142  H          0.63537100       0.76069900       0.89124700
   143  H          0.63537100       0.73930100       0.39124700
   144  H          0.36462900       0.23930100       0.10875300
