data_UCELAQ
_symmetry_space_group_name_H-M    'P1'
_symmetry_Int_Tables_number       1
loop_
_symmetry_equiv_pos_site_id
_symmetry_equiv_pos_as_xyz
1 x,y,z
_cell_length_a                   10.2737
_cell_length_b                   11.0367
_cell_length_c                   13.9449
_cell_angle_alpha                73.9729
_cell_angle_beta                 76.5771
_cell_angle_gamma                88.8711
loop_
_atom_site_label
_atom_site_type_symbol
_atom_site_fract_x
_atom_site_fract_y
_atom_site_fract_z
     1  Br         0.79505500       0.32763500       0.63435400
     2  Br         0.20494500       0.67236500       0.36564600
     3  Br         0.39663600       0.18226500       0.04331400
     4  Br         0.60336400       0.81773500       0.95668600
     5  O          0.45733000       0.84353000       0.51239190
     6  O          0.54267000       0.15647000       0.48760810
     7  O          0.63192000       0.93952000       0.61312000
     8  O          0.36808000       0.06048000       0.38688000
     9  C          0.36833000       0.78623000       0.60893000
    10  C          0.63167000       0.21377000       0.39107000
    11  C          0.35654000       0.64713000       0.62153000
    12  C          0.64346000       0.35287000       0.37847000
    13  C          0.45914000       0.56304000       0.61623000
    14  C          0.54086000       0.43696000       0.38377000
    15  H          0.54800000       0.59040000       0.60430000
    16  H          0.45200000       0.40960000       0.39570000
    17  C          0.42595000       0.43764000       0.62933000
    18  C          0.57405000       0.56236000       0.37067000
    19  H          0.49320000       0.38000000       0.62700000
    20  H          0.50680000       0.62000000       0.37300000
    21  C          0.29575000       0.39704000       0.64554000
    22  C          0.70425000       0.60296000       0.35446000
    23  H          0.27540000       0.31230000       0.65410000
    24  H          0.72460000       0.68770000       0.34590000
    25  C          0.19395000       0.48044000       0.64913000
    26  C          0.80605000       0.51956000       0.35087000
    27  H          0.10570000       0.45270000       0.65860000
    28  H          0.89430000       0.54730000       0.34140000
    29  C          0.22474000       0.60603000       0.63853000
    30  C          0.77526000       0.39397000       0.36147000
    31  C          0.13104000       0.71184000       0.64093000
    32  C          0.86896000       0.28816000       0.35907000
    33  H          0.07040000       0.69720000       0.70810000
    34  H          0.92960000       0.30280000       0.29190000
    35  H          0.07860000       0.72040000       0.59000000
    36  H          0.92140000       0.27960000       0.41000000
    37  C          0.22293000       0.83073000       0.61633000
    38  C          0.77707000       0.16927000       0.38367000
    39  H          0.21680000       0.88730000       0.54980000
    40  H          0.78320000       0.11270000       0.45020000
    41  C          0.19433000       0.90463000       0.69773000
    42  C          0.80567000       0.09537000       0.30227000
    43  H          0.15640000       0.84410000       0.76440000
    44  H          0.84360000       0.15590000       0.23560000
    45  C          0.33483000       0.94753000       0.69933000
    46  C          0.66517000       0.05247000       0.30067000
    47  H          0.37030000       0.01060000       0.63360000
    48  H          0.62970000       0.98940000       0.36640000
    49  C          0.41343000       0.82763000       0.69683000
    50  C          0.58657000       0.17237000       0.30317000
    51  C          0.56563000       0.84703000       0.67233000
    52  C          0.43437000       0.15297000       0.32767000
    53  C          0.61843000       0.73373000       0.73153000
    54  C          0.38157000       0.26627000       0.26847000
    55  C          0.75024000       0.69834000       0.72193000
    56  C          0.24976000       0.30166000       0.27807000
    57  H          0.82030000       0.75090000       0.67580000
    58  H          0.17970000       0.24910000       0.32420000
    59  C          0.77334000       0.58304000       0.78284000
    60  C          0.22666000       0.41696000       0.21716000
    61  H          0.86060000       0.55660000       0.77820000
    62  H          0.13940000       0.44340000       0.22180000
    63  C          0.66825000       0.50574000       0.85114000
    64  C          0.33175000       0.49426000       0.14886000
    65  H          0.68620000       0.42730000       0.89060000
    66  H          0.31380000       0.57270000       0.10940000
    67  C          0.53834000       0.54144000       0.86223000
    68  C          0.46166000       0.45856000       0.13777000
    69  H          0.46890000       0.48900000       0.90940000
    70  H          0.53110000       0.51100000       0.09060000
    71  C          0.51293000       0.65773000       0.80143000
    72  C          0.48707000       0.34227000       0.19857000
    73  C          0.38243000       0.72073000       0.79913000
    74  C          0.61757000       0.27927000       0.20087000
    75  H          0.35380000       0.75490000       0.85730000
    76  H          0.64620000       0.24510000       0.14270000
    77  H          0.31300000       0.66170000       0.80010000
    78  H          0.68700000       0.33830000       0.19990000
    79  C          0.09573000       0.00713000       0.68013000
    80  C          0.90427000      -0.00713000       0.31987000
    81  C          0.96646000      -0.00886000       0.73983000
    82  C          0.03354000       0.00886000       0.26017000
    83  H          0.94020000       0.91620000       0.79140000
    84  H          0.05980000       0.08380000       0.20860000
    85  C          0.87546000       0.08385000       0.72463000
    86  C          0.12454000       0.91615000       0.27537000
    87  H          0.78790000       0.07060000       0.76400000
    88  H          0.21210000       0.92940000       0.23600000
    89  C          0.91576000       0.19574000       0.65073000
    90  C          0.08424000       0.80426000       0.34927000
    91  C          0.04284000       0.21354000       0.58953000
    92  C          0.95716000       0.78646000       0.41047000
    93  H          0.06840000       0.28890000       0.53830000
    94  H          0.93160000       0.71110000       0.46170000
    95  C          0.13304000       0.11964000       0.60383000
    96  C          0.86696000       0.88036000       0.39617000
    97  H          0.21920000       0.13190000       0.56200000
    98  H          0.78080000       0.86810000       0.43800000
    99  C          0.34583000       0.00713000       0.78313000
   100  C          0.65417000      -0.00713000       0.21687000
   101  C          0.25784000       0.97414000       0.87863000
   102  C          0.74216000       0.02586000       0.12137000
   103  H          0.18750000       0.91560000       0.89160000
   104  H          0.81250000       0.08440000       0.10840000
   105  C          0.27215000       0.02644000       0.95583000
   106  C          0.72785000       0.97356000       0.04417000
   107  H          0.21160000       0.00340000       0.01940000
   108  H          0.78840000      -0.00340000       0.98060000
   109  C          0.37574000       0.11194000       0.93753000
   110  C          0.62426000       0.88806000       0.06247000
   111  C          0.46324000       0.14824000       0.84303000
   112  C          0.53676000       0.85176000       0.15697000
   113  H          0.53270000       0.20760000       0.83020000
   114  H          0.46730000       0.79240000       0.16980000
   115  C          0.44764000       0.09613000       0.76703000
   116  C          0.55236000       0.90387000       0.23297000
   117  H          0.50710000       0.12150000       0.70290000
   118  H          0.49290000       0.87850000       0.29710000
   119  H          0.43140000       0.90920000       0.48630000
   120  H          0.56860000       0.09080000       0.51370000
   121  O          0.98175000       0.28125000       0.05644000
   122  O          0.01825000       0.71875000       0.94356000
   123  C          0.14756000       0.41026000       0.92894000
   124  C          0.85244000       0.58974000       0.07106000
   125  H          0.16130000       0.43880000       0.98500000
   126  H          0.83870000       0.56120000       0.01500000
   127  H          0.12540000       0.48010000       0.87760000
   128  H          0.87460000       0.51990000       0.12240000
   129  H          0.22780000       0.37470000       0.89950000
   130  H          0.77220000       0.62530000       0.10050000
   131  C          0.03726000       0.31375000       0.96655000
   132  C          0.96274000       0.68625000       0.03345000
   133  C         -0.00207000       0.25736000       0.89185000
   134  C          0.00207000       0.74264000       0.10815000
   135  H          0.92480000       0.19660000       0.92670000
   136  H          0.07520000       0.80340000       0.07330000
   137  H          0.07280000       0.21650000       0.86080000
   138  H          0.92720000       0.78350000       0.13920000
   139  H          0.97090000       0.32250000       0.83960000
   140  H          0.02910000       0.67750000       0.16040000
