data_UCUGEI
_symmetry_space_group_name_H-M    'P1'
_symmetry_Int_Tables_number       1
loop_
_symmetry_equiv_pos_site_id
_symmetry_equiv_pos_as_xyz
1 x,y,z
_cell_length_a                   26.74176
_cell_length_b                   6.3825016
_cell_length_c                   12.83243
_cell_angle_alpha                90.0
_cell_angle_beta                 103.4402
_cell_angle_gamma                90.0
loop_
_atom_site_label
_atom_site_type_symbol
_atom_site_fract_x
_atom_site_fract_y
_atom_site_fract_z
     1  C          0.70569150       0.26407000       0.10123000
     2  C          0.29430850       0.26407000       0.89877000
     3  C          0.20569150       0.76407000       0.10123000
     4  C          0.79430850       0.76407000       0.89877000
     5  C          0.66813140       0.29817000      -0.00843000
     6  C          0.33186860       0.29817000       0.00843000
     7  C          0.16813140       0.79817000      -0.00843000
     8  C          0.83186860       0.79817000       0.00843000
     9  C          0.62517140       0.33166000       0.13463000
    10  C          0.37482860       0.33166000       0.86537000
    11  C          0.12517140       0.83166000       0.13463000
    12  C          0.87482860       0.83166000       0.86537000
    13  C          0.62316140       0.55456000       0.08033000
    14  C          0.37683860       0.55456000       0.91967000
    15  C          0.12316140       0.05456000       0.08033000
    16  C          0.87683860       0.05456000       0.91967000
    17  C          0.65393140       0.53717000      -0.00813000
    18  C          0.34606860       0.53717000       0.00813000
    19  C          0.15393140       0.03717000      -0.00813000
    20  C          0.84606860       0.03717000       0.00813000
    21  H          0.68470000       0.62590000       0.00760000
    22  H          0.31530000       0.62590000      -0.00760000
    23  H          0.18470000       0.12590000       0.00760000
    24  H          0.81530000       0.12590000      -0.00760000
    25  C          0.61459150       0.61496000       0.89577000
    26  C          0.38540850       0.61496000       0.10423000
    27  C          0.11459150       0.11496000       0.89577000
    28  C          0.88540850       0.11496000       0.10423000
    29  C          0.56953140       0.65597000       0.92687000
    30  C          0.43046860       0.65597000       0.07313000
    31  C          0.06953140       0.15597000       0.92687000
    32  C          0.93046860       0.15597000       0.07313000
    33  C          0.52571150       0.72796000       0.85727000
    34  C          0.47428850       0.72796000       0.14273000
    35  C          0.02571150       0.22796000       0.85727000
    36  C          0.97428850       0.22796000       0.14273000
    37  H          0.49590000       0.75630000       0.88040000
    38  H          0.50410000       0.75630000       0.11960000
    39  H         -0.00410000       0.25630000       0.88040000
    40  H          0.00410000       0.25630000       0.11960000
    41  C          0.52787160       0.75618000       0.75187000
    42  C          0.47212840       0.75618000       0.24813000
    43  C          0.02787160       0.25618000       0.75187000
    44  C          0.97212840       0.25618000       0.24813000
    45  H          0.49880000       0.80020000       0.70180000
    46  H          0.50120000       0.80020000       0.29820000
    47  H         -0.00120000       0.30020000       0.70180000
    48  H          0.00120000       0.30020000       0.29820000
    49  C          0.57297170       0.71908000       0.72057000
    50  C          0.42702830       0.71908000       0.27943000
    51  C          0.07297170       0.21908000       0.72057000
    52  C          0.92702830       0.21908000       0.27943000
    53  C          0.61765160       0.64908000       0.79147000
    54  C          0.38234840       0.64908000       0.20853000
    55  C          0.11765160       0.14908000       0.79147000
    56  C          0.88234840       0.14908000       0.20853000
    57  H          0.64800000       0.62650000       0.76940000
    58  H          0.35200000       0.62650000       0.23060000
    59  H          0.14800000       0.12650000       0.76940000
    60  H          0.85200000       0.12650000       0.23060000
    61  C          0.68680190       0.22298000       0.89606000
    62  C          0.31319810       0.22298000       0.10394000
    63  C          0.18680190       0.72298000       0.89606000
    64  C          0.81319810       0.72298000       0.10394000
    65  H          0.69740000       0.07930000       0.90660000
    66  H          0.30260000       0.07930000       0.09340000
    67  H          0.19740000       0.57930000       0.90660000
    68  H          0.80260000       0.57930000       0.09340000
    69  H          0.71540000       0.30720000       0.88790000
    70  H          0.28460000       0.30720000       0.11210000
    71  H          0.21540000       0.80720000       0.88790000
    72  H          0.78460000       0.80720000       0.11210000
    73  H          0.65950000       0.23420000       0.83280000
    74  H          0.34050000       0.23420000       0.16720000
    75  H          0.15950000       0.73420000       0.83280000
    76  H          0.84050000       0.73420000       0.16720000
    77  C          0.59034150       0.30406000       0.21093000
    78  C          0.40965850       0.30406000       0.78907000
    79  C          0.09034150       0.80406000       0.21093000
    80  C          0.90965850       0.80406000       0.78907000
    81  C          0.53820160       0.26407000       0.17114000
    82  C          0.46179840       0.26407000       0.82886000
    83  C          0.03820160       0.76407000       0.17114000
    84  C          0.96179840       0.76407000       0.82886000
    85  H          0.52520000       0.24750000       0.09780000
    86  H          0.47480000       0.24750000       0.90220000
    87  H          0.02520000       0.74750000       0.09780000
    88  H          0.97480000       0.74750000       0.90220000
    89  C          0.50572170       0.24868000       0.24004000
    90  C          0.49427830       0.24868000       0.75996000
    91  C          0.00572170       0.74868000       0.24004000
    92  C         -0.00572170       0.74868000       0.75996000
    93  H          0.47090000       0.22250000       0.21280000
    94  H          0.52910000       0.22250000       0.78720000
    95  H          0.97090000       0.72250000       0.21280000
    96  H          0.02910000       0.72250000       0.78720000
    97  C          0.52429190       0.27131000       0.34804000
    98  C          0.47570810       0.27131000       0.65196000
    99  C          0.02429190       0.77131000       0.34804000
   100  C          0.97570810       0.77131000       0.65196000
   101  H          0.50220000       0.26070000       0.39410000
   102  H          0.49780000       0.26070000       0.60590000
   103  H          0.00220000       0.76070000       0.39410000
   104  H         -0.00220000       0.76070000       0.60590000
   105  C          0.57592000       0.31011100       0.38824000
   106  C          0.42408000       0.31011100       0.61176000
   107  C          0.07592000       0.81011100       0.38824000
   108  C          0.92408000       0.81011100       0.61176000
   109  H          0.58860000       0.32470000       0.46170000
   110  H          0.41140000       0.32470000       0.53830000
   111  H          0.08860000       0.82470000       0.46170000
   112  H          0.91140000       0.82470000       0.53830000
   113  C          0.60888170       0.32749000       0.32034000
   114  C          0.39111830       0.32749000       0.67966000
   115  C          0.10888170       0.82749000       0.32034000
   116  C          0.89111830       0.82749000       0.67966000
   117  H          0.64360000       0.35480000       0.34810000
   118  H          0.35640000       0.35480000       0.65190000
   119  H          0.14360000       0.85480000       0.34810000
   120  H          0.85640000       0.85480000       0.65190000
   121  Cl         0.57321500       0.75864000       0.58576900
   122  Cl         0.42678500       0.75864000       0.41423100
   123  Cl         0.07321500       0.25864000       0.58576900
   124  Cl         0.92678500       0.25864000       0.41423100
   125  N          0.67920120       0.28536000       0.17793000
   126  N          0.32079880       0.28536000       0.82207000
   127  N          0.17920120       0.78536000       0.17793000
   128  N          0.82079880       0.78536000       0.82207000
   129  H          0.69301900       0.29890000       0.24440000
   130  H          0.30698100       0.29890000       0.75560000
   131  H          0.19301900       0.79890000       0.24440000
   132  H          0.80698100       0.79890000       0.75560000
   133  N          0.64511130       0.71525000       0.16783000
   134  N          0.35488870       0.71525000       0.83217000
   135  N          0.14511130       0.21525000       0.16783000
   136  N          0.85488870       0.21525000       0.83217000
   137  O          0.75162110       0.23166000       0.11453000
   138  O          0.24837890       0.23166000       0.88547000
   139  O          0.25162110       0.73166000       0.11453000
   140  O          0.74837890       0.73166000       0.88547000
   141  O          0.57275100       0.61634000       0.03372000
   142  O          0.42724900       0.61634000       0.96628000
   143  O          0.07275100       0.11634000       0.03372000
   144  O          0.92724900       0.11634000       0.96628000
   145  O          0.61521140       0.79526000       0.21383000
   146  O          0.38478860       0.79526000       0.78617000
   147  O          0.11521140       0.29526000       0.21383000
   148  O          0.88478860       0.29526000       0.78617000
   149  O          0.69135120       0.74766000       0.18863000
   150  O          0.30864880       0.74766000       0.81137000
   151  O          0.19135120       0.24766000       0.18863000
   152  O          0.80864880       0.24766000       0.81137000
   153  S          0.60991400       0.16740150       0.01305700
   154  S          0.39008600       0.16740150       0.98694300
   155  S          0.10991400       0.66740150       0.01305700
   156  S          0.89008600       0.66740150       0.98694300
   157  C          0.30523000       0.09981700       0.37946000
   158  C          0.69477000       0.09981700       0.62054000
   159  C          0.80523000       0.59981700       0.37946000
   160  C          0.19477000       0.59981700       0.62054000
   161  H          0.28810000       0.13530000       0.30720000
   162  H          0.71190000       0.13530000       0.69280000
   163  H          0.78810000       0.63530000       0.30720000
   164  H          0.21190000       0.63530000       0.69280000
   165  H          0.34170000       0.11590000       0.38840000
   166  H          0.65830000       0.11590000       0.61160000
   167  H          0.84170000       0.61590000       0.38840000
   168  H          0.15830000       0.61590000       0.61160000
   169  H          0.29350000       0.19090000       0.42830000
   170  H          0.70650000       0.19090000       0.57170000
   171  H          0.79350000       0.69090000       0.42830000
   172  H          0.20650000       0.69090000       0.57170000
   173  C          0.31822000       0.83871300       0.54624000
   174  C          0.68178000       0.83871300       0.45376000
   175  C          0.81822000       0.33871300       0.54624000
   176  C          0.18178000       0.33871300       0.45376000
   177  H          0.30350000       0.95230000       0.57810000
   178  H          0.69650000       0.95230000       0.42190000
   179  H          0.80350000       0.45230000       0.57810000
   180  H          0.19650000       0.45230000       0.42190000
   181  H          0.35470000       0.85800000       0.55870000
   182  H          0.64530000       0.85800000       0.44130000
   183  H          0.85470000       0.35800000       0.55870000
   184  H          0.14530000       0.35800000       0.44130000
   185  H          0.31110000       0.70880000       0.57760000
   186  H          0.68890000       0.70880000       0.42240000
   187  H          0.81110000       0.20880000       0.57760000
   188  H          0.18890000       0.20880000       0.42240000
   189  O          0.23362140       0.82939000       0.39463000
   190  O          0.76637860       0.82939000       0.60537000
   191  O          0.73362140       0.32939000       0.39463000
   192  O          0.26637860       0.32939000       0.60537000
   193  S          0.29096500       0.83343000       0.40611100
   194  S          0.70903500       0.83343000       0.59388900
   195  S          0.79096500       0.33343000       0.40611100
   196  S          0.20903500       0.33343000       0.59388900
