data_UDACOV
_symmetry_space_group_name_H-M    'P1'
_symmetry_Int_Tables_number       1
loop_
_symmetry_equiv_pos_site_id
_symmetry_equiv_pos_as_xyz
1 x,y,z
_cell_length_a                   7.3817
_cell_length_b                   10.6271
_cell_length_c                   13.54811
_cell_angle_alpha                90.0
_cell_angle_beta                 99.062
_cell_angle_gamma                90.0
loop_
_atom_site_label
_atom_site_type_symbol
_atom_site_fract_x
_atom_site_fract_y
_atom_site_fract_z
     1  O          0.45433000       0.67559130       0.12073100
     2  O          0.04567000       0.17559130       0.37926900
     3  O          0.54567000       0.32440870       0.87926900
     4  O          0.95433000       0.82440870       0.62073100
     5  O          0.38642000       0.50183130       0.19677900
     6  O          0.11358000       0.00183130       0.30322100
     7  O          0.61358000       0.49816870       0.80322100
     8  O          0.88642000      -0.00183130       0.69677900
     9  C          0.43922000       0.56337170       0.12282110
    10  C          0.06078000       0.06337170       0.37717890
    11  C          0.56078000       0.43662830       0.87717890
    12  C          0.93922000       0.93662830       0.62282110
    13  C          0.48223000       0.47918170       0.04284120
    14  C          0.01777000       0.97918170       0.45715880
    15  C          0.51777000       0.52081830       0.95715880
    16  C         -0.01777000       0.02081830       0.54284120
    17  H          0.48392800       0.39279700       0.05394100
    18  H          0.01607200       0.89279700       0.44605900
    19  H          0.51607200       0.60720300       0.94605900
    20  H         -0.01607200       0.10720300       0.55394100
    21  H          0.36630000       0.55630000       0.24820000
    22  H          0.13370000       0.05630000       0.25180000
    23  H          0.63370000       0.44370000       0.75180000
    24  H          0.86630000       0.94370000       0.74820000
    25  O          0.85442000       0.50584150       0.23244100
    26  O          0.64558000       0.00584150       0.26755900
    27  O          0.14558000       0.49415850       0.76755900
    28  O          0.35442000      -0.00584150       0.73244100
    29  N          0.63782000       0.35519130       0.64646900
    30  N          0.86218000       0.85519130       0.85353100
    31  N          0.36218000       0.64480870       0.35353100
    32  N          0.13782000       0.14480870       0.14646900
    33  O          0.87843000       0.68319150       0.30852110
    34  O          0.62157000       0.18319150       0.19147890
    35  O          0.12157000       0.31680850       0.69147890
    36  O          0.37843000       0.81680850       0.80852110
    37  N          0.84342000       0.57128160       0.30506110
    38  N          0.65658000       0.07128160       0.19493890
    39  N          0.15658000       0.42871840       0.69493890
    40  N          0.34342000       0.92871840       0.80506110
    41  C          0.78552000       0.51280150       0.39328110
    42  C          0.71448000       0.01280150       0.10671890
    43  C          0.21448000       0.48719850       0.60671890
    44  C          0.28552000      -0.01280150       0.89328110
    45  C          0.72022000       0.39369160       0.38599110
    46  C          0.77978000       0.89369160       0.11400890
    47  C          0.27978000       0.60630840       0.61400890
    48  C          0.22022000       0.10630840       0.88599110
    49  H          0.71060200       0.34990600       0.32595900
    50  H          0.78939800       0.84990600       0.17404100
    51  H          0.28939800       0.65009400       0.67404100
    52  H          0.21060200       0.15009400       0.82595900
    53  C          0.66682000       0.33714150       0.47105110
    54  C          0.83318000       0.83714150       0.02894890
    55  C          0.33318000       0.66285850       0.52894890
    56  C          0.16682000       0.16285850       0.97105110
    57  C          0.59163000       0.21541160       0.47030130
    58  C          0.90837000       0.71541160       0.02969870
    59  C          0.40837000       0.78458840       0.52969870
    60  C          0.09163000       0.28458840       0.97030130
    61  H          0.57586200       0.16763200       0.41206600
    62  H          0.92413800       0.66763200       0.08793400
    63  H          0.42413800       0.83236800       0.58793400
    64  H          0.07586200       0.33236800       0.91206600
    65  C          0.54243000       0.16841170       0.55526140
    66  C          0.95757000       0.66841170       0.94473860
    67  C          0.45757000       0.83158830       0.44473860
    68  C          0.04243000       0.33158830       0.05526140
    69  H          0.49100600       0.08854500       0.55566000
    70  H          0.00899400       0.58854500       0.94434000
    71  H          0.50899400       0.91145500       0.44434000
    72  H         -0.00899400       0.41145500       0.05566000
    73  C          0.56973000       0.24129170       0.64230130
    74  C          0.93027000       0.74129170       0.85769870
    75  C          0.43027000       0.75870830       0.35769870
    76  C          0.06973000       0.25870830       0.14230130
    77  H          0.53786800       0.20693100       0.70032700
    78  H          0.96213200       0.70693100       0.79967300
    79  H          0.46213200       0.79306900       0.29967300
    80  H          0.03786800       0.29306900       0.20032700
    81  C          0.80262000       0.58361160       0.48172120
    82  C          0.69738000       0.08361160       0.01827880
    83  C          0.19738000       0.41638840       0.51827880
    84  C          0.30262000       0.91638840       0.98172120
    85  H          0.84649500       0.66573500       0.48355600
    86  H          0.65350500       0.16573500       0.01644400
    87  H          0.15350500       0.33426500       0.51644400
    88  H          0.34649500       0.83426500       0.98355600
    89  C          0.75372000       0.52984150       0.56450120
    90  C          0.74628000       0.02984150       0.93549880
    91  C          0.24628000       0.47015850       0.43549880
    92  C          0.25372000       0.97015850       0.06450120
    93  H          0.76514800       0.57532600       0.62380300
    94  H          0.73485200       0.07532600       0.87619700
    95  H          0.23485200       0.42467400       0.37619700
    96  H          0.26514800       0.92467400       0.12380300
    97  C          0.68612000       0.40616140       0.56146100
    98  C          0.81388000       0.90616140       0.93853900
    99  C          0.31388000       0.59383860       0.43853900
   100  C          0.18612000       0.09383860       0.06146100
