data_UDEJOE
_symmetry_space_group_name_H-M    'P1'
_symmetry_Int_Tables_number       1
loop_
_symmetry_equiv_pos_site_id
_symmetry_equiv_pos_as_xyz
1 x,y,z
_cell_length_a                   11.528311
_cell_length_b                   14.765714
_cell_length_c                   8.79538
_cell_angle_alpha                90.0
_cell_angle_beta                 110.8863
_cell_angle_gamma                90.0
loop_
_atom_site_label
_atom_site_type_symbol
_atom_site_fract_x
_atom_site_fract_y
_atom_site_fract_z
     1  N          0.26493000       0.47562000       0.32124000
     2  N          0.73507000       0.97562000       0.17876000
     3  N          0.73507000       0.52438000       0.67876000
     4  N          0.26493000       0.02438000       0.82124000
     5  C          0.18923000       0.54182000       0.32234000
     6  C          0.81077000       0.04182000       0.17766000
     7  C          0.81077000       0.45818000       0.67766000
     8  C          0.18923000       0.95818000       0.82234000
     9  H          0.19030000       0.59930000       0.27440000
    10  H          0.80970000       0.09930000       0.22560000
    11  H          0.80970000       0.40070000       0.72560000
    12  H          0.19030000       0.90070000       0.77440000
    13  N          0.10893000       0.52008190       0.39883000
    14  N          0.89107000       0.02008190       0.10117000
    15  N          0.89107000       0.47991810       0.60117000
    16  N          0.10893000       0.97991810       0.89883000
    17  H          0.05160000       0.55530000       0.41200000
    18  H          0.94840000       0.05530000       0.08800000
    19  H          0.94840000       0.44470000       0.58800000
    20  H          0.05160000       0.94470000       0.91200000
    21  C          0.13513000       0.43272000       0.45064000
    22  C          0.86487000       0.93272000       0.04936000
    23  C          0.86487000       0.56728000       0.54936000
    24  C          0.13513000       0.06728000       0.95064000
    25  N          0.07842000       0.38275190       0.52963000
    26  N          0.92158000       0.88275190       0.97037000
    27  N          0.92158000       0.61724810       0.47037000
    28  N          0.07842000       0.11724810       0.02963000
    29  C          0.12443000       0.29902000       0.56514000
    30  C          0.87557000       0.79902000       0.93486000
    31  C          0.87557000       0.70098000       0.43486000
    32  C          0.12443000       0.20098000       0.06514000
    33  H          0.08760000       0.25980000       0.62070000
    34  H          0.91240000       0.75980000       0.87930000
    35  H          0.91240000       0.74020000       0.37930000
    36  H          0.08760000       0.24020000       0.12070000
    37  C          0.22333000       0.26552000       0.52545000
    38  C          0.77667000       0.76552000       0.97455000
    39  C          0.77667000       0.73448000       0.47455000
    40  C          0.22333000       0.23448000       0.02545000
    41  H          0.25210000       0.20560000       0.55610000
    42  H          0.74790000       0.70560000       0.94390000
    43  H          0.74790000       0.79440000       0.44390000
    44  H          0.25210000       0.29440000       0.05610000
    45  C          0.27973000       0.31832000       0.44214000
    46  C          0.72027000       0.81832000       0.05786000
    47  C          0.72027000       0.68168000       0.55786000
    48  C          0.27973000       0.18168000       0.94214000
    49  H          0.34670000       0.29630000       0.41360000
    50  H          0.65330000       0.79630000       0.08640000
    51  H          0.65330000       0.70370000       0.58640000
    52  H          0.34670000       0.20370000       0.91360000
    53  C          0.23333000       0.40502000       0.40244000
    54  C          0.76667000       0.90502000       0.09756000
    55  C          0.76667000       0.59498000       0.59756000
    56  C          0.23333000       0.09498000       0.90244000
    57  C          0.64923000       0.43802000       0.21124000
    58  C          0.35077000       0.93802000       0.28876000
    59  C          0.35077000       0.56198000       0.78876000
    60  C          0.64923000       0.06198000       0.71124000
    61  I          0.48688518       0.46392415       0.26031200
    62  I          0.51311482       0.96392415       0.23968800
    63  I          0.51311482       0.53607585       0.73968800
    64  I          0.48688518       0.03607585       0.76031200
    65  C          0.69783000       0.35102000       0.21634000
    66  C          0.30217000       0.85102000       0.28366000
    67  C          0.30217000       0.64898000       0.78366000
    68  C          0.69783000       0.14898000       0.71634000
    69  I          0.61358200       0.23548016       0.26605300
    70  I          0.38641800       0.73548016       0.23394700
    71  I          0.38641800       0.76451984       0.73394700
    72  I          0.61358200       0.26451984       0.76605300
    73  C          0.80473000       0.33932000       0.18054000
    74  C          0.19527000       0.83932000       0.31946000
    75  C          0.19527000       0.66068000       0.81946000
    76  C          0.80473000       0.16068000       0.68054000
    77  F          0.85552000       0.25707150       0.18463000
    78  F          0.14448000       0.75707150       0.31537000
    79  F          0.14448000       0.74292850       0.81537000
    80  F          0.85552000       0.24292850       0.68463000
    81  C          0.86133000       0.41132000       0.13544000
    82  C          0.13867000       0.91132000       0.36456000
    83  C          0.13867000       0.58868000       0.86456000
    84  C          0.86133000       0.08868000       0.63544000
    85  F          0.96174180       0.39761150       0.09603000
    86  F          0.03825820       0.89761150       0.40397000
    87  F          0.03825820       0.60238850       0.90397000
    88  F          0.96174180       0.10238850       0.59603000
    89  C          0.81343000       0.49652000       0.12944000
    90  C          0.18657000      -0.00348000       0.37056000
    91  C          0.18657000       0.50348000       0.87056000
    92  C          0.81343000       0.00348000       0.62944000
    93  F          0.86842000       0.56653150       0.08743000
    94  F          0.13158000       0.06653150       0.41257000
    95  F          0.13158000       0.43346850       0.91257000
    96  F          0.86842000       0.93346850       0.58743000
    97  C          0.70893000       0.50902000       0.16884000
    98  C          0.29107000       0.00902000       0.33116000
    99  C          0.29107000       0.49098000       0.83116000
   100  C          0.70893000      -0.00902000       0.66884000
   101  F          0.66480190       0.59383140       0.16083000
   102  F          0.33519810       0.09383140       0.33917000
   103  F          0.33519810       0.40616860       0.83917000
   104  F          0.66480190       0.90616860       0.66083000
