data_UDELEX
_symmetry_space_group_name_H-M    'P1'
_symmetry_Int_Tables_number       1
loop_
_symmetry_equiv_pos_site_id
_symmetry_equiv_pos_as_xyz
1 x,y,z
_cell_length_a                   8.40904
_cell_length_b                   11.17935
_cell_length_c                   15.03227
_cell_angle_alpha                100.23301
_cell_angle_beta                 105.79801
_cell_angle_gamma                100.37201
loop_
_atom_site_label
_atom_site_type_symbol
_atom_site_fract_x
_atom_site_fract_y
_atom_site_fract_z
     1  I          0.31557400       0.17568300       0.95960200
     2  I          0.68442600       0.82431700       0.04039800
     3  I          0.90839400       0.72026300       0.34349200
     4  I          0.09160600       0.27973700       0.65650800
     5  I          0.70401400       0.46557300       0.32289200
     6  I          0.29598600       0.53442700       0.67710800
     7  I          0.11002500       0.96411400       0.36229300
     8  I          0.88997500       0.03588600       0.63770700
     9  S          0.84466190       0.62217150       0.57145900
    10  S          0.15533810       0.37782850       0.42854100
    11  S          0.20723140       0.84259100       0.92626900
    12  S          0.79276860       0.15740900       0.07373100
    13  N          0.69605000       0.74403000       0.67223000
    14  N          0.30395000       0.25597000       0.32777000
    15  N          0.95964000       0.64363000       0.87852000
    16  N          0.04036000       0.35637000       0.12148000
    17  C          0.68816000       0.69915000       0.57983000
    18  C          0.31184000       0.30085000       0.42017000
    19  C          0.56187000       0.71155000       0.50123000
    20  C          0.43813000       0.28845000       0.49877000
    21  H          0.55850000       0.67700000       0.43800000
    22  H          0.44150000       0.32300000       0.56200000
    23  C          0.44507000       0.77375000       0.51784000
    24  C          0.55493000       0.22625000       0.48216000
    25  H          0.35690000       0.78130000       0.46550000
    26  H          0.64310000       0.21870000       0.53450000
    27  C          0.45246000       0.82765000       0.61183000
    28  C          0.54754000       0.17235000       0.38817000
    29  C          0.33517000       0.89786000       0.62944000
    30  C          0.66483000       0.10214000       0.37056000
    31  H          0.24670000       0.90540000       0.57730000
    32  H          0.75330000       0.09460000       0.42270000
    33  C          0.34657000       0.95495000       0.72024000
    34  C          0.65343000       0.04505000       0.27976000
    35  H          0.26630000       0.00110000       0.73070000
    36  H          0.73370000      -0.00110000       0.26930000
    37  C          0.47706000       0.94484000       0.79753000
    38  C          0.52294000       0.05516000       0.20247000
    39  H          0.48540000      -0.01470000       0.86030000
    40  H          0.51460000       0.01470000       0.13970000
    41  C          0.59256000       0.87744000       0.78363000
    42  C          0.40744000       0.12256000       0.21637000
    43  H          0.68090000       0.87200000       0.83660000
    44  H          0.31910000       0.12800000       0.16340000
    45  C          0.58115000       0.81624000       0.69143000
    46  C          0.41885000       0.18376000       0.30857000
    47  C          0.82786000       0.71064000       0.73743000
    48  C          0.17214000       0.28936000       0.26257000
    49  C          0.91587000       0.64755000       0.69183000
    50  C          0.08413000       0.35245000       0.30817000
    51  H          0.01020000       0.61930000       0.72440000
    52  H         -0.01020000       0.38070000       0.27560000
    53  C          0.86925000       0.73854000       0.84453000
    54  C          0.13075000       0.26146000       0.15547000
    55  H          0.76180000       0.73180000       0.86190000
    56  H          0.23820000       0.26820000       0.13810000
    57  C         -0.00734000       0.86664000       0.89733000
    58  C          0.00734000       0.13336000       0.10267000
    59  H          0.96780000       0.90060000       0.95610000
    60  H          0.03220000       0.09940000       0.04390000
    61  H         -0.01950000       0.92680000       0.85630000
    62  H          0.01950000       0.07320000       0.14370000
    63  C          0.13005000       0.68424000       0.91393000
    64  C          0.86995000       0.31576000       0.08607000
    65  C          0.23226000       0.60064000       0.93373000
    66  C          0.76774000       0.39936000       0.06627000
    67  H          0.35260000       0.62960000       0.95910000
    68  H          0.64740000       0.37040000       0.04090000
    69  C          0.15576000       0.47604000       0.91593000
    70  C          0.84424000       0.52396000       0.08407000
    71  H          0.22430000       0.41810000       0.92730000
    72  H          0.77570000       0.58190000       0.07270000
    73  C         -0.02184000       0.43254000       0.88113000
    74  C          0.02184000       0.56746000       0.11887000
    75  C          0.89396000       0.30424000       0.86263000
    76  C          0.10604000       0.69576000       0.13737000
    77  H          0.95930000       0.24400000       0.87270000
    78  H          0.04070000       0.75600000       0.12730000
    79  C          0.71977000       0.26614000       0.83044000
    80  C          0.28023000       0.73386000       0.16956000
    81  H          0.66540000       0.18020000       0.81920000
    82  H          0.33460000       0.81980000       0.18080000
    83  C          0.62096000       0.35385000       0.81374000
    84  C          0.37904000       0.64615000       0.18626000
    85  H          0.50030000       0.32610000       0.79140000
    86  H          0.49970000       0.67390000       0.20860000
    87  C          0.69596000       0.47934000       0.82934000
    88  C          0.30404000       0.52066000       0.17066000
    89  H          0.62830000       0.53780000       0.81780000
    90  H          0.37170000       0.46220000       0.18220000
    91  C          0.87495000       0.51844000       0.86273000
    92  C          0.12505000       0.48156000       0.13727000
