data_UDEQUP01
_symmetry_space_group_name_H-M    'P1'
_symmetry_Int_Tables_number       1
loop_
_symmetry_equiv_pos_site_id
_symmetry_equiv_pos_as_xyz
1 x,y,z
_cell_length_a                   7.6781
_cell_length_b                   8.5211
_cell_length_c                   7.2854
_cell_angle_alpha                103.892
_cell_angle_beta                 91.912
_cell_angle_gamma                95.901
loop_
_atom_site_label
_atom_site_type_symbol
_atom_site_fract_x
_atom_site_fract_y
_atom_site_fract_z
     1  S          0.23791700       0.51871700       0.38486800
     2  S          0.76208300       0.48128300       0.61513200
     3  S          0.41867700       0.23798700       0.41787800
     4  S          0.58132300       0.76201300       0.58212200
     5  C          0.42852000       0.44912000       0.45883000
     6  C          0.57148000       0.55088000       0.54117000
     7  C          0.12333000       0.32533000       0.30443000
     8  C          0.87667000       0.67467000       0.69557000
     9  C          0.20213000       0.19793000       0.31943000
    10  C          0.79787000       0.80207000       0.68057000
    11  C          0.12584000       0.02423000       0.26254000
    12  C          0.87416000       0.97577000       0.73746000
    13  O          0.27172000       0.69812000       0.93118000
    14  O          0.72828000       0.30188000       0.06882000
    15  Cl         0.12552700       0.35784700       0.81689200
    16  Cl         0.87447300       0.64215300       0.18310800
    17  Cl         0.59553800       0.87850600       0.12182900
    18  Cl         0.40446200       0.12149400       0.87817100
    19  C          0.37393000       0.60782000       0.96657000
    20  C          0.62607000       0.39218000       0.03343000
    21  C          0.33262000       0.42872000       0.91367000
    22  C          0.66738000       0.57128000       0.08633000
    23  C          0.55053000       0.67172000       0.05983000
    24  C          0.44947000       0.32828000       0.94017000
