data_UDIHOH
_symmetry_space_group_name_H-M    'P1'
_symmetry_Int_Tables_number       1
loop_
_symmetry_equiv_pos_site_id
_symmetry_equiv_pos_as_xyz
1 x,y,z
_cell_length_a                   7.09446
_cell_length_b                   8.02514
_cell_length_c                   14.97568
_cell_angle_alpha                99.512613
_cell_angle_beta                 90.6043
_cell_angle_gamma                94.7463
loop_
_atom_site_label
_atom_site_type_symbol
_atom_site_fract_x
_atom_site_fract_y
_atom_site_fract_z
     1  I          0.19501400       0.06307300       0.81023200
     2  I          0.80498600       0.93692700       0.18976800
     3  S          0.27925160       0.09914110       0.59584500
     4  S          0.72074840       0.90085890       0.40415500
     5  S          0.20623170       0.41060110       0.71207500
     6  S          0.79376830       0.58939890       0.28792500
     7  F          0.95816000       0.15733000       0.66610140
     8  F          0.04184000       0.84267000       0.33389860
     9  O          0.47135000       0.09384000       0.62549180
    10  O          0.52865000       0.90616000       0.37450820
    11  O          0.17996000       0.95086000       0.54747180
    12  O          0.82004000       0.04914000       0.45252820
    13  O          0.38506000       0.44464000       0.75883180
    14  O          0.61494000       0.55536000       0.24116820
    15  O          0.04956000       0.49744000       0.74779180
    16  O          0.95044000       0.50256000       0.25220820
    17  C          0.14307000       0.17975000       0.69403000
    18  C          0.85693000       0.82025000       0.30597000
    19  C          0.26456000       0.27464000       0.53932000
    20  C          0.73544000       0.72536000       0.46068000
    21  C          0.23456000       0.42604000       0.59602000
    22  C          0.76544000       0.57396000       0.40398000
    23  C          0.22617000       0.57775000       0.56173000
    24  C          0.77383000       0.42225000       0.43827000
    25  C          0.25017000       0.57065000       0.46943000
    26  C          0.74983000       0.42935000       0.53057000
    27  C          0.27977000       0.42055000       0.41363000
    28  C          0.72023000       0.57945000       0.58637000
    29  C          0.28597000       0.26975000       0.44763000
    30  C          0.71403000       0.73025000       0.55237000
    31  H          0.20480000       0.68090000       0.60000000
    32  H          0.79520000       0.31910000       0.40000000
    33  H          0.24600000       0.67120000       0.44410000
    34  H          0.75400000       0.32880000       0.55590000
    35  H          0.29620000       0.42020000       0.35070000
    36  H          0.70380000       0.57980000       0.64930000
    37  H          0.30440000       0.16650000       0.40870000
    38  H          0.69560000       0.83350000       0.59130000
    39  N          0.76156000       0.07104000       0.04399190
    40  N          0.23844000       0.92896000       0.95600810
    41  C          0.76397000       0.23415000       0.03723000
    42  C          0.23603000       0.76585000       0.96277000
    43  C          0.73586000       0.29175000       0.95593000
    44  C          0.26414000       0.70825000       0.04407000
    45  C          0.70347000       0.17025000       0.87883000
    46  C          0.29653000       0.82975000       0.12117000
    47  C          0.70216000      -0.00275000       0.88363000
    48  C          0.29784000       0.00275000       0.11637000
    49  C          0.72967000       0.95555000       0.96863000
    50  C          0.27033000       0.04445000       0.03137000
    51  C          0.74368000       0.47876000       0.95134000
    52  C          0.25632000       0.52124000       0.04866000
    53  C          0.66998000       0.85904000       0.80163000
    54  C          0.33002000       0.14096000       0.19837000
    55  H          0.78600000       0.31570000       0.09070000
    56  H          0.21400000       0.68430000       0.90930000
    57  H          0.68200000       0.20450000       0.82200000
    58  H          0.31800000       0.79550000       0.17800000
    59  H          0.72570000       0.83900000       0.97380000
    60  H          0.27430000       0.16100000       0.02620000
    61  H          0.76760000       0.54440000       0.01210000
    62  H          0.23240000       0.45560000       0.98790000
    63  H          0.84570000       0.50790000       0.91150000
    64  H          0.15430000       0.49210000       0.08850000
    65  H          0.62270000       0.50520000       0.92720000
    66  H          0.37730000       0.49480000       0.07280000
    67  H          0.65310000       0.91050000       0.74740000
    68  H          0.34690000       0.08950000       0.25260000
    69  H          0.77940000       0.79160000       0.79450000
    70  H          0.22060000       0.20840000       0.20550000
    71  H          0.55620000       0.78560000       0.80990000
    72  H          0.44380000       0.21440000       0.19010000
