data_UDIHIB
_symmetry_space_group_name_H-M    'P1'
_symmetry_Int_Tables_number       1
loop_
_symmetry_equiv_pos_site_id
_symmetry_equiv_pos_as_xyz
1 x,y,z
_cell_length_a                   8.22823
_cell_length_b                   24.43429
_cell_length_c                   10.99214
_cell_angle_alpha                90.0
_cell_angle_beta                 99.63691
_cell_angle_gamma                90.0
loop_
_atom_site_label
_atom_site_type_symbol
_atom_site_fract_x
_atom_site_fract_y
_atom_site_fract_z
     1  I         -0.00920400       0.86288200       0.42517300
     2  I          0.00920400       0.36288200       0.57482700
     3  S          0.17287160       0.95423500       0.62716130
     4  S          0.82712840       0.45423500       0.37283870
     5  S         -0.01128150       0.85692600       0.72098120
     6  S          0.01128150       0.35692600       0.27901880
     7  F          0.26474000       0.85278130       0.63723000
     8  F          0.73526000       0.35278130       0.36277000
     9  O          0.02566000       0.98490180       0.58305000
    10  O          0.97434000       0.48490180       0.41695000
    11  O          0.25696000       0.96128180       0.75074000
    12  O          0.74304000       0.46128180       0.24926000
    13  O          0.96574000       0.79957180       0.69285000
    14  O          0.03426000       0.29957180       0.30715000
    15  O          0.85135000       0.89302000       0.71014000
    16  O          0.14865000       0.39302000       0.28986000
    17  C          0.11887000       0.88142000       0.61105000
    18  C          0.88113000       0.38142000       0.38895000
    19  C          0.31587000       0.96283000       0.52635000
    20  C          0.68413000       0.46283000       0.47365000
    21  C          0.26458000       0.98243000       0.40826000
    22  C          0.73542000       0.48243000       0.59174000
    23  C          0.38059000       0.99043000       0.33156000
    24  C          0.61941000       0.49043000       0.66844000
    25  C          0.54629000       0.97863000       0.37567000
    26  C          0.45371000       0.47863000       0.62433000
    27  C          0.59718000       0.95973000       0.49277000
    28  C          0.40282000       0.45973000       0.50723000
    29  C          0.48127000       0.95173000       0.57176000
    30  C          0.51873000       0.45173000       0.42824000
    31  C          0.10596000       0.86223000       0.87005000
    32  C          0.89404000       0.36223000       0.12995000
    33  C          0.21998000       0.82163000       0.91336000
    34  C          0.78002000       0.32163000       0.08664000
    35  C          0.30249000       0.82493000       0.03427000
    36  C          0.69751000       0.32493000       0.96573000
    37  C          0.26898000       0.86694000       0.10956000
    38  C          0.73102000       0.36694000       0.89044000
    39  C          0.15529000       0.90693000       0.06536000
    40  C          0.84471000       0.40693000       0.93464000
    41  C          0.07188000       0.90493000       0.94536000
    42  C          0.92812000       0.40493000       0.05464000
    43  H          0.15150000       0.99030000       0.37980000
    44  H          0.84850000       0.49030000       0.62020000
    45  H          0.34760000       0.00370000       0.24990000
    46  H          0.65240000       0.50370000       0.75010000
    47  H          0.62530000       0.98390000       0.32290000
    48  H          0.37470000       0.48390000       0.67710000
    49  H          0.71040000       0.95200000       0.52080000
    50  H          0.28960000       0.45200000       0.47920000
    51  H          0.51470000       0.93900000       0.65380000
    52  H          0.48530000       0.43900000       0.34620000
    53  H          0.24090000       0.79230000       0.86130000
    54  H          0.75910000       0.29230000       0.13870000
    55  H          0.38220000       0.79810000       0.06500000
    56  H          0.61780000       0.29810000       0.93500000
    57  H          0.32420000       0.86840000       0.19250000
    58  H          0.67580000       0.36840000       0.80750000
    59  H          0.13440000       0.93610000       0.11790000
    60  H          0.86560000       0.43610000       0.88210000
    61  H         -0.00720000       0.93200000       0.91500000
    62  H          0.00720000       0.43200000       0.08500000
    63  I          0.43362400       0.66720200       0.03850300
    64  I          0.56637600       0.16720200       0.96149700
    65  S          0.43873150       0.67133600       0.74317120
    66  S          0.56126850       0.17133600       0.25682880
    67  S          0.25158160       0.57483500       0.83922120
    68  S          0.74841840       0.07483500       0.16077880
    69  F          0.16214000       0.67654140       0.82523000
    70  F          0.83786000       0.17654140       0.17477000
    71  O          0.46306000       0.72856180       0.77004000
    72  O          0.53694000       0.22856180       0.22996000
    73  O          0.57725000       0.63450190       0.75604000
    74  O          0.42275000       0.13450190       0.24396000
    75  O          0.39636000       0.54418160       0.88625000
    76  O          0.60364000       0.04418160       0.11375000
    77  O          0.16845000       0.56592170       0.71494000
    78  O          0.83155000       0.06592170       0.28506000
    79  C          0.30617000       0.64833000       0.85336000
    80  C          0.69383000       0.14833000       0.14664000
    81  C          0.10787000       0.56813000       0.93956000
    82  C          0.89213000       0.06813000       0.06044000
    83  C          0.15878000       0.54953000       0.05966000
    84  C          0.84122000       0.04953000       0.94034000
    85  C          0.04199000       0.54333000       0.13626000
    86  C          0.95801000       0.04333000       0.86374000
    87  C          0.87781000       0.55423000       0.09237000
    88  C          0.12219000       0.05423000       0.90763000
    89  C          0.82802000       0.57283000       0.97217000
    90  C          0.17198000       0.07283000       0.02783000
    91  C          0.94253000       0.58003000       0.89526000
    92  C          0.05747000       0.08003000       0.10474000
    93  C          0.32406000       0.66603000       0.59285000
    94  C          0.67594000       0.16603000       0.40715000
    95  C          0.21598000       0.70693000       0.54826000
    96  C          0.78402000       0.20693000       0.45174000
    97  C          0.13569000       0.70373000       0.42786000
    98  C          0.86431000       0.20373000       0.57214000
    99  C          0.16529000       0.66034000       0.35276000
   100  C          0.83471000       0.16034000       0.64724000
   101  C          0.27529000       0.61933000       0.39997000
   102  C          0.72471000       0.11933000       0.60003000
   103  C          0.35468000       0.62143000       0.52036000
   104  C          0.64532000       0.12143000       0.47964000
   105  H          0.27140000       0.54130000       0.08850000
   106  H          0.72860000       0.04130000       0.91150000
   107  H          0.07490000       0.53140000       0.21900000
   108  H          0.92510000       0.03140000       0.78100000
   109  H          0.79820000       0.54900000       0.14460000
   110  H          0.20180000       0.04900000       0.85540000
   111  H          0.71520000       0.58050000       0.94310000
   112  H          0.28480000       0.08050000       0.05690000
   113  H          0.90950000       0.59280000       0.81330000
   114  H          0.09050000       0.09280000       0.18670000
   115  H          0.19680000       0.73680000       0.59920000
   116  H          0.80320000       0.23680000       0.40080000
   117  H          0.05920000       0.73140000       0.39590000
   118  H          0.94080000       0.23140000       0.60410000
   119  H          0.11050000       0.65860000       0.26960000
   120  H          0.88950000       0.15860000       0.73040000
   121  H          0.29570000       0.58960000       0.34860000
   122  H          0.70430000       0.08960000       0.65140000
   123  H          0.42850000       0.59320000       0.55340000
   124  H          0.57150000       0.09320000       0.44660000
   125  N          0.84473000       0.83983000       0.19855000
   126  N          0.15527000       0.33983000       0.80145000
   127  C          0.74882000       0.87723000       0.12976000
   128  C          0.25118000       0.37723000       0.87024000
   129  C          0.68593000       0.86923000       0.00655000
   130  C          0.31407000       0.36923000      -0.00655000
   131  C          0.72133000       0.82013000       0.95266000
   132  C          0.27867000       0.32013000       0.04734000
   133  C          0.82172000       0.78063000       0.02266000
   134  C          0.17828000       0.28063000       0.97734000
   135  C          0.87841000       0.79383000       0.14447000
   136  C          0.12159000       0.29383000       0.85553000
   137  C          0.58611000       0.91304000       0.93187000
   138  C          0.41389000       0.41304000       0.06813000
   139  C          0.86811000       0.72843000       0.96637000
   140  C          0.13189000       0.22843000       0.03363000
   141  H          0.72380000       0.91040000       0.16770000
   142  H          0.27620000       0.41040000       0.83230000
   143  H          0.67790000       0.81310000       0.86850000
   144  H          0.32210000       0.31310000       0.13150000
   145  H          0.94690000       0.76790000       0.19300000
   146  H          0.05310000       0.26790000       0.80700000
   147  H          0.55230000       0.90000000       0.84690000
   148  H          0.44770000       0.40000000       0.15310000
   149  H          0.48820000       0.92120000       0.96830000
   150  H          0.51180000       0.42120000       0.03170000
   151  H          0.65310000       0.94610000       0.93140000
   152  H          0.34690000       0.44610000       0.06860000
   153  H          0.81550000       0.72690000       0.87960000
   154  H          0.18450000       0.22690000       0.12040000
   155  H         -0.01180000       0.72680000       0.97160000
   156  H          0.01180000       0.22680000       0.02840000
   157  H          0.83120000       0.69730000       0.01090000
   158  H          0.16880000       0.19730000      -0.01090000
   159  N          0.58137000       0.69193000       0.26426000
   160  N          0.41863000       0.19193000       0.73574000
   161  C          0.67798000       0.65683000       0.33447000
   162  C          0.32202000       0.15683000       0.66553000
   163  C          0.74347000       0.66533000       0.45776000
   164  C          0.25653000       0.16533000       0.54224000
   165  C          0.70307000       0.71463000       0.50846000
   166  C          0.29693000       0.21463000       0.49154000
   167  C          0.60138000       0.75213000       0.43906000
   168  C          0.39862000       0.25213000       0.56094000
   169  C          0.54288000       0.73853000       0.31846000
   170  C          0.45712000       0.23853000       0.68154000
   171  C          0.84599000       0.62243000       0.53348000
   172  C          0.15401000       0.12243000       0.46652000
   173  C          0.55089000       0.80513000       0.49158000
   174  C          0.44911000       0.30513000       0.50842000
   175  H          0.70410000       0.62340000       0.29770000
   176  H          0.29590000       0.12340000       0.70230000
   177  H          0.74610000       0.72260000       0.59210000
   178  H          0.25390000       0.22260000       0.40790000
   179  H          0.47080000       0.76360000       0.27020000
   180  H          0.52920000       0.26360000       0.72980000
   181  H          0.88050000       0.63610000       0.61760000
   182  H          0.11950000       0.13610000       0.38240000
   183  H          0.78040000       0.58900000       0.53560000
   184  H          0.21960000       0.08900000       0.46440000
   185  H          0.94350000       0.61430000       0.49630000
   186  H          0.05650000       0.11430000       0.50370000
   187  H          0.60350000       0.80820000       0.57800000
   188  H          0.39650000       0.30820000       0.42200000
   189  H          0.58530000       0.83580000       0.44440000
   190  H          0.41470000       0.33580000       0.55560000
   191  H          0.43080000       0.80580000       0.48630000
   192  H          0.56920000       0.30580000       0.51370000
