data_UFETOR
_symmetry_space_group_name_H-M    'P1'
_symmetry_Int_Tables_number       1
loop_
_symmetry_equiv_pos_site_id
_symmetry_equiv_pos_as_xyz
1 x,y,z
_cell_length_a                   7.10134
_cell_length_b                   10.31605
_cell_length_c                   28.719315
_cell_angle_alpha                90.0
_cell_angle_beta                 90.0
_cell_angle_gamma                90.0
loop_
_atom_site_label
_atom_site_type_symbol
_atom_site_fract_x
_atom_site_fract_y
_atom_site_fract_z
     1  N          0.62874180       0.43276120       0.54872400
     2  N          0.87125820       0.56723880       0.04872400
     3  N          0.37125820       0.93276120       0.95127600
     4  N          0.12874180       0.06723880       0.45127600
     5  N          0.37125820       0.56723880       0.45127600
     6  N          0.12874180       0.43276120       0.95127600
     7  N          0.62874180       0.06723880       0.04872400
     8  N          0.87125820       0.93276120       0.54872400
     9  N          0.53485170       0.29678110       0.76606400
    10  N          0.96514830       0.70321890       0.26606400
    11  N          0.46514830       0.79678110       0.73393600
    12  N          0.03485170       0.20321890       0.23393600
    13  N          0.46514830       0.70321890       0.23393600
    14  N          0.03485170       0.29678110       0.73393600
    15  N          0.53485170       0.20321890       0.26606400
    16  N          0.96514830       0.79678110       0.76606400
    17  O          0.60502140       0.50986800       0.76908300
    18  O          0.89497860       0.49013200       0.26908300
    19  O          0.39497860       0.00986800       0.73091700
    20  O          0.10502140      -0.00986800       0.23091700
    21  O          0.39497860       0.49013200       0.23091700
    22  O          0.10502140       0.50986800       0.73091700
    23  O          0.60502140      -0.00986800       0.26908300
    24  O          0.89497860       0.00986800       0.76908300
    25  C          0.57364170       0.40890110       0.74534400
    26  C          0.92635830       0.59109890       0.24534400
    27  C          0.42635830       0.90890110       0.75465600
    28  C          0.07364170       0.09109890       0.25465600
    29  C          0.42635830       0.59109890       0.25465600
    30  C          0.07364170       0.40890110       0.75465600
    31  C          0.57364170       0.09109890       0.24534400
    32  C          0.92635830       0.90890110       0.74534400
    33  C          0.58221160       0.41415110       0.69405400
    34  C          0.91778840       0.58584890       0.19405400
    35  C          0.41778840       0.91415110       0.80594600
    36  C          0.08221160       0.08584890       0.30594600
    37  C          0.41778840       0.58584890       0.30594600
    38  C          0.08221160       0.41415110       0.80594600
    39  C          0.58221160       0.08584890       0.19405400
    40  C          0.91778840       0.91415110       0.69405400
    41  C          0.65595160       0.52446110       0.67217400
    42  C          0.84404840       0.47553890       0.17217400
    43  C          0.34404840       0.02446110       0.82782600
    44  C          0.15595160       0.97553890       0.32782600
    45  C          0.34404840       0.47553890       0.32782600
    46  C          0.15595160       0.52446110       0.82782600
    47  C          0.65595160       0.97553890       0.17217400
    48  C          0.84404840       0.02446110       0.67217400
    49  C          0.67128160       0.53170110       0.62431400
    50  C          0.82871840       0.46829890       0.12431400
    51  C          0.32871840       0.03170110       0.87568600
    52  C          0.17128160       0.96829890       0.37568600
    53  C          0.32871840       0.46829890       0.37568600
    54  C          0.17128160       0.53170110       0.87568600
    55  C          0.67128160       0.96829890       0.12431400
    56  C          0.82871840       0.03170110       0.62431400
    57  C          0.61433160       0.42698110       0.59611400
    58  C          0.88566840       0.57301890       0.09611400
    59  C          0.38566840       0.92698110       0.90388600
    60  C          0.11433160       0.07301890       0.40388600
    61  C          0.38566840       0.57301890       0.40388600
    62  C          0.11433160       0.42698110       0.90388600
    63  C          0.61433160       0.07301890       0.09611400
    64  C          0.88566840       0.92698110       0.59611400
    65  C          0.53685170       0.31728110       0.61802400
    66  C          0.96314830       0.68271890       0.11802400
    67  C          0.46314830       0.81728110       0.88197600
    68  C          0.03685170       0.18271890       0.38197600
    69  C          0.46314830       0.68271890       0.38197600
    70  C          0.03685170       0.31728110       0.88197600
    71  C          0.53685170       0.18271890       0.11802400
    72  C          0.96314830       0.81728110       0.61802400
    73  C          0.52178170       0.31145110       0.66588400
    74  C          0.97821830       0.68854890       0.16588400
    75  C          0.47821830       0.81145110       0.83411600
    76  C          0.02178170       0.18854890       0.33411600
    77  C          0.47821830       0.68854890       0.33411600
    78  C          0.02178170       0.31145110       0.83411600
    79  C          0.52178170       0.18854890       0.16588400
    80  C          0.97821830       0.81145110       0.66588400
    81  H          0.70020000       0.59661400       0.69055000
    82  H          0.79980000       0.40338600       0.19055000
    83  H          0.29980000       0.09661400       0.80945000
    84  H          0.20020000       0.90338600       0.30945000
    85  H          0.29980000       0.40338600       0.30945000
    86  H          0.20020000       0.59661400       0.80945000
    87  H          0.70020000       0.90338600       0.19055000
    88  H          0.79980000       0.09661400       0.69055000
    89  H          0.72320000       0.60831500       0.60975000
    90  H          0.77680000       0.39168500       0.10975000
    91  H          0.27680000       0.10831500       0.89025000
    92  H          0.22320000       0.89168500       0.39025000
    93  H          0.27680000       0.39168500       0.39025000
    94  H          0.22320000       0.60831500       0.89025000
    95  H          0.72320000       0.89168500       0.10975000
    96  H          0.77680000       0.10831500       0.60975000
    97  H          0.49420000       0.24741500       0.59945000
    98  H          0.00580000       0.75258500       0.09945000
    99  H          0.50580000       0.74741500       0.90055000
   100  H         -0.00580000       0.25258500       0.40055000
   101  H          0.50580000       0.75258500       0.40055000
   102  H         -0.00580000       0.24741500       0.90055000
   103  H          0.49420000       0.25258500       0.09945000
   104  H          0.00580000       0.74741500       0.59945000
   105  H          0.46620000       0.23481500       0.67955000
   106  H          0.03380000       0.76518500       0.17955000
   107  H          0.53380000       0.73481500       0.82045000
   108  H          0.96620000       0.26518500       0.32045000
   109  H          0.53380000       0.76518500       0.32045000
   110  H          0.96620000       0.23481500       0.82045000
   111  H          0.46620000       0.26518500       0.17955000
   112  H          0.03380000       0.73481500       0.67955000
   113  H          0.68320000       0.49971700       0.53626000
   114  H          0.81680000       0.50028300       0.03626000
   115  H          0.31680000      -0.00028300       0.96374000
   116  H          0.18320000       0.00028300       0.46374000
   117  H          0.31680000       0.50028300       0.46374000
   118  H          0.18320000       0.49971700       0.96374000
   119  H          0.68320000       0.00028300       0.03626000
   120  H          0.81680000      -0.00028300       0.53626000
   121  H          0.61530000       0.36171900       0.53326000
   122  H          0.88470000       0.63828100       0.03326000
   123  H          0.38470000       0.86171900       0.96674000
   124  H          0.11530000       0.13828100       0.46674000
   125  H          0.38470000       0.63828100       0.46674000
   126  H          0.11530000       0.36171900       0.96674000
   127  H          0.61530000       0.13828100       0.03326000
   128  H          0.88470000       0.86171900       0.53326000
   129  H          0.51630000       0.22211700       0.75027000
   130  H         -0.01630000       0.77788300       0.25027000
   131  H          0.48370000       0.72211700       0.74973000
   132  H          0.01630000       0.27788300       0.24973000
   133  H          0.48370000       0.77788300       0.24973000
   134  H          0.01630000       0.22211700       0.74973000
   135  H          0.51630000       0.27788300       0.25027000
   136  H         -0.01630000       0.72211700       0.75027000
   137  H          0.53020000       0.29471500       0.79726000
   138  H          0.96980000       0.70528500       0.29726000
   139  H          0.46980000       0.79471500       0.70274000
   140  H          0.03020000       0.20528500       0.20274000
   141  H          0.46980000       0.70528500       0.20274000
   142  H          0.03020000       0.29471500       0.70274000
   143  H          0.53020000       0.20528500       0.29726000
   144  H          0.96980000       0.79471500       0.79726000
   145  O          0.63753150       0.15799900       0.50661300
   146  O          0.86246850       0.84200100       0.00661300
   147  O          0.36246850       0.65799900       0.99338700
   148  O          0.13753150       0.34200100       0.49338700
   149  O          0.36246850       0.84200100       0.49338700
   150  O          0.13753150       0.15799900       0.99338700
   151  O          0.63753150       0.34200100       0.00661300
   152  O          0.86246850       0.65799900       0.50661300
   153  O          0.57902150       0.28221800       0.44608300
   154  O          0.92097850       0.71778200       0.94608300
   155  O          0.42097850       0.78221800       0.05391700
   156  O          0.07902150       0.21778200       0.55391700
   157  O          0.42097850       0.71778200       0.55391700
   158  O          0.07902150       0.28221800       0.05391700
   159  O          0.57902150       0.21778200       0.94608300
   160  O          0.92097850       0.78221800       0.44608300
   161  O          0.55770130       0.18046800       0.36580300
   162  O          0.94229870       0.81953200       0.86580300
   163  O          0.44229870       0.68046800       0.13419700
   164  O          0.05770130       0.31953200       0.63419700
   165  O          0.44229870       0.81953200       0.63419700
   166  O          0.05770130       0.18046800       0.13419700
   167  O          0.55770130       0.31953200       0.86580300
   168  O          0.94229870       0.68046800       0.36580300
   169  O          0.65207130       0.97543200       0.35599300
   170  O          0.84792870       0.02456800       0.85599300
   171  O          0.34792870       0.47543200       0.14400700
   172  O          0.15207130       0.52456800       0.64400700
   173  O          0.34792870       0.02456800       0.64400700
   174  O          0.15207130       0.97543200       0.14400700
   175  O          0.65207130       0.52456800       0.85599300
   176  O          0.84792870       0.47543200       0.35599300
   177  C          0.61649170       0.16825120       0.46483400
   178  C          0.88350830       0.83174880       0.96483400
   179  C          0.38350830       0.66825120       0.03516600
   180  C          0.11649170       0.33174880       0.53516600
   181  C          0.38350830       0.83174880       0.53516600
   182  C          0.11649170       0.16825120       0.03516600
   183  C          0.61649170       0.33174880       0.96483400
   184  C          0.88350830       0.66825120       0.46483400
   185  C          0.63388180       0.05183110       0.43296400
   186  C          0.86611820       0.94816890       0.93296400
   187  C          0.36611820       0.55183110       0.06703600
   188  C          0.13388180       0.44816890       0.56703600
   189  C          0.36611820       0.94816890       0.56703600
   190  C          0.13388180       0.05183110       0.06703600
   191  C          0.63388180       0.44816890       0.93296400
   192  C          0.86611820       0.55183110       0.43296400
   193  C          0.61156160       0.07551110       0.38142400
   194  C          0.88843840       0.92448890       0.88142400
   195  C          0.38843840       0.57551110       0.11857600
   196  C          0.11156160       0.42448890       0.61857600
   197  C          0.38843840       0.92448890       0.61857600
   198  C          0.11156160       0.07551110       0.11857600
   199  C          0.61156160       0.42448890       0.88142400
   200  C          0.88843840       0.57551110       0.38142400
   201  H          0.75320000       0.01081600       0.43885000
   202  H          0.74680000      -0.01081600       0.93885000
   203  H          0.24680000       0.51081600       0.06115000
   204  H          0.25320000       0.48918400       0.56115000
   205  H          0.24680000      -0.01081600       0.56115000
   206  H          0.25320000       0.01081600       0.06115000
   207  H          0.75320000       0.48918400       0.93885000
   208  H          0.74680000       0.51081600       0.43885000
   209  H          0.53920000      -0.01071600       0.44296000
   210  H          0.96080000       0.01071600       0.94296000
   211  H          0.46080000       0.48928400       0.05704000
   212  H          0.03920000       0.51071600       0.55704000
   213  H          0.46080000       0.01071600       0.55704000
   214  H          0.03920000      -0.01071600       0.05704000
   215  H          0.53920000       0.51071600       0.94296000
   216  H          0.96080000       0.48928400       0.44296000
   217  H          0.56530000       0.26720000       0.41328000
   218  H          0.93470000       0.73280000       0.91328000
   219  H          0.43470000       0.76720000       0.08672000
   220  H          0.06530000       0.23280000       0.58672000
   221  H          0.43470000       0.73280000       0.58672000
   222  H          0.06530000       0.26720000       0.08672000
   223  H          0.56530000       0.23280000       0.91328000
   224  H          0.93470000       0.76720000       0.41328000
   225  H          0.63030000      -0.00620000       0.32208000
   226  H          0.86970000       0.00620000       0.82208000
   227  H          0.36970000       0.49380000       0.17792000
   228  H          0.13030000       0.50620000       0.67792000
   229  H          0.36970000       0.00620000       0.67792000
   230  H          0.13030000      -0.00620000       0.17792000
   231  H          0.63030000       0.50620000       0.82208000
   232  H          0.86970000       0.49380000       0.32208000
