data_UFEVUZ
_symmetry_space_group_name_H-M    'P1'
_symmetry_Int_Tables_number       1
loop_
_symmetry_equiv_pos_site_id
_symmetry_equiv_pos_as_xyz
1 x,y,z
_cell_length_a                   5.34173
_cell_length_b                   9.87215
_cell_length_c                   20.15921
_cell_angle_alpha                90.0
_cell_angle_beta                 97.41247
_cell_angle_gamma                90.0
loop_
_atom_site_label
_atom_site_type_symbol
_atom_site_fract_x
_atom_site_fract_y
_atom_site_fract_z
     1  N          0.76934160       0.48692900       0.68794400
     2  N          0.73065840      -0.01307100       0.81205600
     3  N          0.23065840       0.51307100       0.31205600
     4  N          0.26934160       0.01307100       0.18794400
     5  O          0.82299140       0.48564800       0.57846300
     6  O          0.67700860       0.98564800       0.92153700
     7  O          0.17700860       0.51435200       0.42153700
     8  O          0.32299140       0.01435200       0.07846300
     9  O          0.51307140      -0.01152300       0.66914400
    10  O         -0.01307140       0.48847700       0.83085600
    11  O          0.48692860       0.01152300       0.33085600
    12  O          0.01307140       0.51152300       0.16914400
    13  C          0.87350170       0.53456900       0.63634400
    14  C          0.62649830       0.03456900       0.86365600
    15  C          0.12649830       0.46543100       0.36365600
    16  C          0.37350170       0.96543100       0.13634400
    17  C          0.05098160       0.64999900       0.64721400
    18  C          0.44901840       0.14999900       0.85278600
    19  C          0.94901840       0.35000100       0.35278600
    20  C          0.55098160       0.85000100       0.14721400
    21  C          0.04109180       0.74109100       0.69987500
    22  C          0.45890820       0.24109100       0.80012500
    23  C          0.95890820       0.25890900       0.30012500
    24  C          0.54109180       0.75890900       0.19987500
    25  C          0.19710180       0.85355100       0.70640500
    26  C          0.30289820       0.35355100       0.79359500
    27  C          0.80289820       0.14644900       0.29359500
    28  C          0.69710180       0.64644900       0.20640500
    29  C          0.36799160       0.87504900       0.66056400
    30  C          0.13200840       0.37504900       0.83943600
    31  C          0.63200840       0.12495100       0.33943600
    32  C          0.86799160       0.62495100       0.16056400
    33  C          0.38306170       0.78362900       0.60841400
    34  C          0.11693830       0.28362900       0.89158600
    35  C          0.61693830       0.21637100       0.39158600
    36  C          0.88306170       0.71637100       0.10841400
    37  C          0.22324170       0.67240900       0.60177400
    38  C          0.27675830       0.17240900       0.89822600
    39  C          0.77675830       0.32759100       0.39822600
    40  C          0.72324170       0.82759100       0.10177400
    41  H          0.65130000       0.42331500       0.67937000
    42  H          0.84870000       0.92331500       0.82063000
    43  H          0.34870000       0.57668500       0.32063000
    44  H          0.15130000       0.07668500       0.17937000
    45  H          0.82330000       0.51391400       0.72987000
    46  H          0.67670000       0.01391400       0.77013000
    47  H          0.17670000       0.48608600       0.27013000
    48  H          0.32330000      -0.01391400       0.22987000
    49  H          0.92130000       0.72731500       0.73137000
    50  H          0.57870000       0.22731500       0.76863000
    51  H          0.07870000       0.27268500       0.26863000
    52  H          0.42130000       0.77268500       0.23137000
    53  H          0.18730000       0.92041500       0.74117000
    54  H          0.31270000       0.42041500       0.75883000
    55  H          0.81270000       0.07958500       0.25883000
    56  H          0.68730000       0.57958500       0.24117000
    57  H          0.60940000      -0.00638200       0.63699000
    58  H          0.89060000       0.49361800       0.86301000
    59  H          0.39060000       0.00638200       0.36301000
    60  H          0.10940000       0.50638200       0.13699000
    61  H          0.50230000       0.79911500       0.57648000
    62  H         -0.00230000       0.29911500       0.92352000
    63  H          0.49770000       0.20088500       0.42352000
    64  H          0.00230000       0.70088500       0.07648000
    65  H          0.23230000       0.60941400       0.56587000
    66  H          0.26770000       0.10941400       0.93413000
    67  H          0.76770000       0.39058600       0.43413000
    68  H          0.73230000       0.89058600       0.06587000
    69  O          0.49424140       0.31672800       0.54014400
    70  O          0.00575860       0.81672800       0.95985600
    71  O          0.50575860       0.68327200       0.45985600
    72  O         -0.00575860       0.18327200       0.04014400
    73  O          0.34720140       0.31693800       0.63867300
    74  O          0.15279860       0.81693800       0.86132700
    75  O          0.65279860       0.68306200       0.36132700
    76  O          0.84720140       0.18306200       0.13867300
    77  O          0.80723850       0.03644800       0.57393400
    78  O          0.69276150       0.53644800       0.92606600
    79  O          0.19276150       0.96355200       0.42606600
    80  O          0.30723850       0.46355200       0.07393400
    81  O          0.96968860       0.16987800       0.65572400
    82  O          0.53031140       0.66987800       0.84427600
    83  O          0.03031140       0.83012200       0.34427600
    84  O          0.46968860       0.33012200       0.15572400
    85  C          0.33992170       0.27734900       0.58037400
    86  C          0.16007830       0.77734900       0.91962600
    87  C          0.66007830       0.72265100       0.41962600
    88  C          0.83992170       0.22265100       0.08037400
    89  C          0.14491190       0.17720100       0.54992500
    90  C          0.35508810       0.67720100       0.95007500
    91  C          0.85508810       0.82279900       0.45007500
    92  C          0.64491190       0.32279900       0.04992500
    93  C          0.96178830       0.12229100       0.59446500
    94  C          0.53821170       0.62229100       0.90553500
    95  C          0.03821170       0.87770900       0.40553500
    96  C          0.46178830       0.37770900       0.09446500
    97  H          0.62340000       0.38420000       0.56191000
    98  H          0.87660000       0.88420000       0.93809000
    99  H          0.37660000       0.61580000       0.43809000
   100  H          0.12340000       0.11580000       0.06191000
   101  H          0.04630000       0.22121600       0.51178000
   102  H          0.45370000       0.72121600       0.98822000
   103  H          0.95370000       0.77878400       0.48822000
   104  H          0.54630000       0.27878400       0.01178000
   105  H          0.22930000       0.09981500       0.53287000
   106  H          0.27070000       0.59981500       0.96713000
   107  H          0.77070000       0.90018500       0.46713000
   108  H          0.72930000       0.40018500       0.03287000
   109  H          0.10640000       0.23020000       0.66201000
   110  H          0.39360000       0.73020000       0.83799000
   111  H          0.89360000       0.76980000       0.33799000
   112  H          0.60640000       0.26980000       0.16201000
