data_UFEVEJ
_symmetry_space_group_name_H-M    'P1'
_symmetry_Int_Tables_number       1
loop_
_symmetry_equiv_pos_site_id
_symmetry_equiv_pos_as_xyz
1 x,y,z
_cell_length_a                   5.71277
_cell_length_b                   6.76878
_cell_length_c                   14.895018
_cell_angle_alpha                89.215918
_cell_angle_beta                 85.934617
_cell_angle_gamma                73.349317
loop_
_atom_site_label
_atom_site_type_symbol
_atom_site_fract_x
_atom_site_fract_y
_atom_site_fract_z
     1  N          0.71823000       0.74602000       0.52709100
     2  N          0.28177000       0.25398000       0.47290900
     3  H          0.65740000       0.75540000       0.58831700
     4  H          0.34260000       0.24460000       0.41168300
     5  H          0.86450000       0.75540000       0.50781600
     6  H          0.13550000       0.24460000       0.49218400
     7  N          0.84003000       0.66863000       0.09400100
     8  N          0.15997000       0.33137000       0.90599900
     9  H          0.71650000       0.71540000       0.05721600
    10  H          0.28350000       0.28460000       0.94278400
    11  H         -0.00950000       0.63540000       0.07531600
    12  H          0.00950000       0.36460000       0.92468400
    13  O          0.34132000       0.74812190       0.49084700
    14  O          0.65868000       0.25187810       0.50915300
    15  C          0.55953000       0.73902000       0.46671100
    16  C          0.44047000       0.26098000       0.53328900
    17  C          0.64123000       0.72182000       0.37037100
    18  C          0.35877000       0.27818000       0.62962900
    19  C          0.88753000       0.65382000       0.33900110
    20  C          0.11247000       0.34618000       0.66099890
    21  C          0.95453000       0.63593000       0.24753110
    22  C          0.04547000       0.36407000       0.75246890
    23  C          0.77573000       0.68722000       0.18393100
    24  C          0.22427000       0.31278000       0.81606900
    25  C          0.52873000       0.75583000       0.21585100
    26  C          0.47127000       0.24417000       0.78414900
    27  C          0.46433000       0.77182000       0.30665100
    28  C          0.53567000       0.22818000       0.69334900
    29  H          0.01540000       0.61230000       0.37911300
    30  H          0.98460000       0.38770000       0.62088700
    31  H          0.12840000       0.58830000       0.22701300
    32  H          0.87160000       0.41170000       0.77298700
    33  H          0.40840000       0.78730000       0.16991400
    34  H          0.59160000       0.21270000       0.83008600
    35  H          0.29540000       0.82230000       0.32851200
    36  H          0.70460000       0.17770000       0.67148800
    37  O          0.12022000       0.83582190       0.63955700
    38  O          0.87978000       0.16417810       0.36044300
    39  H          0.23360000       0.79150000       0.58520000
    40  H          0.76640000       0.20850000       0.41480000
    41  O          0.46272000       0.75156190       0.71245700
    42  O          0.53728000       0.24843810       0.28754300
    43  O          0.34872000       0.77002000       0.00741800
    44  O          0.65128000       0.22998000      -0.00741800
    45  O          0.56082000       0.72572000       0.87634800
    46  O          0.43918000       0.27428000       0.12365200
    47  H          0.52550000       0.73340000       0.80981900
    48  H          0.47450000       0.26660000       0.19018100
    49  C          0.23643000       0.80532000       0.71248100
    50  C          0.76357000       0.19468000       0.28751900
    51  C          0.06663000       0.84393000       0.79490110
    52  C          0.93337000       0.15607000       0.20509890
    53  C          0.11533000       0.83183000       0.88157110
    54  C          0.88467000       0.16817000       0.11842890
    55  C          0.35153000       0.77283000       0.92575110
    56  C          0.64847000       0.22717000       0.07424890
    57  H          0.89560000       0.88430000       0.77921300
    58  H          0.10440000       0.11570000       0.22078700
    59  H          0.98060000       0.87130000       0.92471400
    60  H          0.01940000       0.12870000       0.07528600
