data_UFOGIJ
_symmetry_space_group_name_H-M    'P1'
_symmetry_Int_Tables_number       1
loop_
_symmetry_equiv_pos_site_id
_symmetry_equiv_pos_as_xyz
1 x,y,z
_cell_length_a                   3.864085
_cell_length_b                   30.60734
_cell_length_c                   10.8873114
_cell_angle_alpha                90.0
_cell_angle_beta                 99.637113
_cell_angle_gamma                90.0
loop_
_atom_site_label
_atom_site_type_symbol
_atom_site_fract_x
_atom_site_fract_y
_atom_site_fract_z
     1  O          0.33733000       0.79163300       0.49907900
     2  O          0.66267000       0.29163300       0.00092100
     3  O          0.66267000       0.20836700       0.50092100
     4  O          0.33733000       0.70836700      -0.00092100
     5  N          0.91253000       0.68212400       0.32596110
     6  N          0.08747000       0.18212400       0.17403890
     7  N          0.08747000       0.31787600       0.67403890
     8  N          0.91253000       0.81787600       0.82596110
     9  H          0.82144400       0.65889900       0.28950700
    10  H          0.17855600       0.15889900       0.21049300
    11  H          0.17855600       0.34110100       0.71049300
    12  H          0.82144400       0.84110100       0.78950700
    13  C          0.20713000       0.75714400       0.44402120
    14  C          0.79287000       0.25714400       0.05597880
    15  C          0.79287000       0.24285600       0.55597880
    16  C          0.20713000       0.74285600       0.94402120
    17  C          0.01864000       0.75748500       0.32004130
    18  C         -0.01864000       0.25748500       0.17995870
    19  C         -0.01864000       0.24251500       0.67995870
    20  C          0.01864000       0.74251500       0.82004130
    21  H         -0.00832900       0.78361600       0.27590100
    22  H          0.00832900       0.28361600       0.22409900
    23  H          0.00832900       0.21638400       0.72409900
    24  H         -0.00832900       0.71638400       0.77590100
    25  C          0.23544000       0.71553400       0.50303120
    26  C          0.76456000       0.21553400      -0.00303120
    27  C          0.76456000       0.28446600       0.49696880
    28  C          0.23544000       0.78446600       0.00303120
    29  H          0.35716100       0.71296000       0.58394500
    30  H          0.64283900       0.21296000       0.91605500
    31  H          0.64283900       0.28704000       0.41605500
    32  H          0.35716100       0.78704000       0.08394500
    33  C          0.08864000       0.67975500       0.44357130
    34  C          0.91136000       0.17975500       0.05642870
    35  C          0.91136000       0.32024500       0.55642870
    36  C          0.08864000       0.82024500       0.94357130
    37  H          0.10924800       0.65295200       0.48442600
    38  H          0.89075200       0.15295200       0.01557400
    39  H          0.89075200       0.34704800       0.51557400
    40  H          0.10924800       0.84704800       0.98442600
    41  C          0.87814000       0.72043500       0.26534130
    42  C          0.12186000       0.22043500       0.23465870
    43  C          0.12186000       0.27956500       0.73465870
    44  C          0.87814000       0.77956500       0.76534130
    45  H          0.75550400       0.72152700       0.18426000
    46  H          0.24449600       0.22152700       0.31574000
    47  H          0.24449600       0.27847300       0.81574000
    48  H          0.75550400       0.77847300       0.68426000
    49  O          0.61883000       0.61327300       0.18292100
    50  O          0.38117000       0.11327300       0.31707900
    51  O          0.38117000       0.38672700       0.81707900
    52  O          0.61883000       0.88672700       0.68292100
    53  N          0.19433000       0.50059400       0.28381110
    54  N          0.80567000       0.00059400       0.21618890
    55  N          0.80567000       0.49940600       0.71618890
    56  N          0.19433000      -0.00059400       0.78381110
    57  H          0.10608600       0.47653400       0.30526700
    58  H          0.89391400       0.97653400       0.19473300
    59  H          0.89391400       0.52346600       0.69473300
    60  H          0.10608600       0.02346600       0.80526700
    61  C          0.48643000       0.57810400       0.21485120
    62  C          0.51357000       0.07810400       0.28514880
    63  C          0.51357000       0.42189600       0.78514880
    64  C          0.48643000       0.92189600       0.71485120
    65  C          0.37674000       0.54403400       0.12800120
    66  C          0.62326000       0.04403400       0.37199880
    67  C          0.62326000       0.45596600       0.87199880
    68  C          0.37674000       0.95596600       0.62800120
    69  H          0.40087600       0.54746900       0.04499000
    70  H          0.59912400       0.04746900       0.45501000
    71  H          0.59912400       0.45253100       0.95501000
    72  H          0.40087600       0.95253100       0.54499000
    73  C          0.43404000       0.56978500       0.33951130
    74  C          0.56596000       0.06978500       0.16048870
    75  C          0.56596000       0.43021500       0.66048870
    76  C          0.43404000       0.93021500       0.83951130
    77  H          0.50094900       0.59066800       0.40094000
    78  H          0.49905100       0.09066800       0.09906000
    79  H          0.49905100       0.40933200       0.59906000
    80  H          0.50094900       0.90933200       0.90094000
    81  C          0.23774000       0.50675500       0.16505130
    82  C          0.76226000       0.00675500       0.33494870
    83  C          0.76226000       0.49324500       0.83494870
    84  C          0.23774000       0.99324500       0.66505130
    85  H          0.17023100       0.48478900       0.10692800
    86  H          0.82976900       0.98478900       0.39307200
    87  H          0.82976900       0.51521100       0.89307200
    88  H          0.17023100       0.01521100       0.60692800
    89  C          0.28904000       0.53207500       0.36908130
    90  C          0.71096000       0.03207500       0.13091870
    91  C          0.71096000       0.46792500       0.63091870
    92  C          0.28904000       0.96792500       0.86908130
    93  H          0.25330500       0.52764400       0.45054100
    94  H          0.74669500       0.02764400       0.04945900
    95  H          0.74669500       0.47235600       0.54945900
    96  H          0.25330500       0.97235600       0.95054100
    97  O          0.78846000       0.41948400       0.17795100
    98  O          0.21154000       0.91948400       0.32204900
    99  O          0.21154000       0.58051600       0.82204900
   100  O          0.78846000       0.08051600       0.67795100
   101  O          0.87436000       0.42404400       0.37749100
   102  O          0.12564000       0.92404400       0.12250900
   103  O          0.12564000       0.57595600       0.62250900
   104  O          0.87436000       0.07595600       0.87749100
   105  N          0.76006000       0.40340400       0.28131110
   106  N          0.23994000       0.90340400       0.21868890
   107  N          0.23994000       0.59659600       0.71868890
   108  N          0.76006000       0.09659600       0.78131110
   109  O          0.62425000       0.36738500       0.28570130
   110  O          0.37575000       0.86738500       0.21429870
   111  O          0.37575000       0.63261500       0.71429870
   112  O          0.62425000       0.13261500       0.78570130
   113  N          0.84134000       0.85680500       0.46651140
   114  N          0.15866000       0.35680500       0.03348860
   115  N          0.15866000       0.14319500       0.53348860
   116  N          0.84134000       0.64319500       0.96651140
   117  H          0.02960000       0.83457000       0.48420000
   118  H         -0.02960000       0.33457000       0.01580000
   119  H         -0.02960000       0.16543000       0.51580000
   120  H          0.02960000       0.66543000       0.98420000
   121  H          0.79860000       0.86897000       0.53420000
   122  H          0.20140000       0.36897000       0.96580000
   123  H          0.20140000       0.13103000       0.46580000
   124  H          0.79860000       0.63103000       0.03420000
   125  H          0.91170000       0.87781000       0.41830000
   126  H          0.08830000       0.37781000       0.08170000
   127  H          0.08830000       0.12219000       0.58170000
   128  H          0.91170000       0.62219000       0.91830000
   129  H          0.66510000       0.84611100       0.41830000
   130  H          0.33490000       0.34611100       0.08170000
   131  H          0.33490000       0.15388900       0.58170000
   132  H          0.66510000       0.65388900       0.91830000
