data_UFOMAF
_symmetry_space_group_name_H-M    'P1'
_symmetry_Int_Tables_number       1
loop_
_symmetry_equiv_pos_site_id
_symmetry_equiv_pos_as_xyz
1 x,y,z
_cell_length_a                   10.34343
_cell_length_b                   11.28824
_cell_length_c                   13.46422
_cell_angle_alpha                81.7225
_cell_angle_beta                 83.2274
_cell_angle_gamma                89.6155
loop_
_atom_site_label
_atom_site_type_symbol
_atom_site_fract_x
_atom_site_fract_y
_atom_site_fract_z
     1  S          0.67667900       0.56621800       0.22296700
     2  S          0.32332100       0.43378200       0.77703300
     3  S          0.74812900       0.39518800       0.23099700
     4  S          0.25187100       0.60481200       0.76900300
     5  S          0.64249900       0.82998800       0.20779700
     6  S          0.35750100       0.17001200       0.79220300
     7  S          0.74595100       0.12116800       0.24496700
     8  S          0.25404900       0.87883200       0.75503300
     9  C          0.77623000       0.77972000       0.13422000
    10  C          0.22377000       0.22028000       0.86578000
    11  C          0.86873000       0.85463000       0.07192000
    12  C          0.13127000       0.14537000       0.92808000
    13  C          0.97603000       0.81153000       0.01852000
    14  C          0.02397000       0.18847000       0.98148000
    15  C         -0.00627000       0.68823000       0.02502000
    16  C          0.00627000       0.31177000       0.97498000
    17  C          0.90413000       0.61043000       0.08492000
    18  C          0.09587000       0.38957000       0.91508000
    19  C          0.79643000       0.65552000       0.13932000
    20  C          0.20357000       0.34448000       0.86068000
    21  C          0.68822000       0.33212000       0.13102000
    22  C          0.31178000       0.66788000       0.86898000
    23  C          0.64503000       0.40073000       0.04792000
    24  C          0.35497000       0.59927000       0.95208000
    25  C          0.59543000       0.34653000       0.97498000
    26  C          0.40457000       0.65347000       0.02502000
    27  C          0.58903000       0.22303000       0.98378000
    28  C          0.41097000       0.77697000       0.01622000
    29  C          0.63633000       0.15433000       0.06482000
    30  C          0.36367000       0.84567000       0.93518000
    31  C          0.68502000       0.20672000       0.13992000
    32  C          0.31498000       0.79328000       0.86008000
    33  H          0.85690000       0.93880000       0.06610000
    34  H          0.14310000       0.06120000       0.93390000
    35  H          0.03730000       0.86530000       0.97750000
    36  H          0.96270000       0.13470000       0.02250000
    37  H          0.06750000       0.65760000       0.98840000
    38  H          0.93250000       0.34240000       0.01160000
    39  H          0.91580000       0.52640000       0.08900000
    40  H          0.08420000       0.47360000       0.91100000
    41  H          0.64970000       0.48550000       0.04120000
    42  H          0.35030000       0.51450000       0.95880000
    43  H          0.56550000       0.39430000       0.91840000
    44  H          0.43450000       0.60570000       0.08160000
    45  H          0.55240000       0.18580000       0.93440000
    46  H          0.44760000       0.81420000       0.06560000
    47  H          0.63540000       0.06960000       0.06900000
    48  H          0.36460000       0.93040000       0.93100000
    49  H          0.70520000       0.01160000       0.22820000
    50  H          0.29480000       0.98840000       0.77180000
    51  N          0.67833000       0.94472000       0.66562000
    52  N          0.32167000       0.05528000       0.33438000
    53  N          0.80683000       0.88903000       0.53722000
    54  N          0.19317000       0.11097000       0.46278000
    55  C          0.64935000       0.97674000       0.76004000
    56  C          0.35065000       0.02326000       0.23996000
    57  C          0.74436000       0.98454000       0.81723000
    58  C          0.25564000       0.01546000       0.18277000
    59  C          0.87415000       0.96224000       0.78203000
    60  C          0.12585000       0.03776000       0.21797000
    61  C          0.90303000       0.93014000       0.68983000
    62  C          0.09697000       0.06986000       0.31017000
    63  C          0.80373000       0.92023000       0.62943000
    64  C          0.19627000       0.07977000       0.37057000
    65  C          0.60114000       0.92824000       0.59294000
    66  C          0.39886000       0.07176000       0.40706000
    67  C          0.68044000       0.89494000       0.51634000
    68  C          0.31956000       0.10506000       0.48366000
    69  H          0.65260000       0.87770000       0.45510000
    70  H          0.34740000       0.12230000       0.54490000
    71  H          0.56190000      -0.00710000       0.78440000
    72  H          0.43810000       0.00710000       0.21560000
    73  H          0.72430000       0.00580000       0.88290000
    74  H          0.27570000      -0.00580000       0.11710000
    75  H          0.94100000       0.96960000       0.82330000
    76  H          0.05900000       0.03040000       0.17670000
    77  H         -0.00940000       0.91440000       0.66570000
    78  H          0.00940000       0.08560000       0.33430000
    79  H          0.50950000       0.93840000       0.59620000
    80  H          0.49050000       0.06160000       0.40380000
    81  N          0.17653000       0.73533000       0.33462000
    82  N          0.82347000       0.26467000       0.66538000
    83  N         -0.00537000       0.78843000       0.41532000
    84  N          0.00537000       0.21157000       0.58468000
    85  C          0.96845000       0.76164000       0.32473000
    86  C          0.03155000       0.23836000       0.67527000
    87  C          0.30675000       0.71334000       0.31993000
    88  C          0.69325000       0.28666000       0.68007000
    89  C          0.38134000       0.72594000       0.39304000
    90  C          0.61866000       0.27406000       0.60696000
    91  C          0.32644000       0.76004000       0.48373000
    92  C          0.67356000       0.23996000       0.51627000
    93  C          0.19734000       0.78413000       0.49932000
    94  C          0.80266000       0.21587000       0.50068000
    95  C          0.12203000       0.77213000       0.42252000
    96  C          0.87797000       0.22787000       0.57748000
    97  C          0.07806000       0.72904000       0.27363000
    98  C          0.92194000       0.27096000       0.72637000
    99  H          0.88510000       0.76510000       0.30130000
   100  H          0.11490000       0.23490000       0.69870000
   101  H          0.93200000       0.81820000       0.46240000
   102  H          0.06800000       0.18180000       0.53760000
   103  H          0.34420000       0.68920000       0.25810000
   104  H          0.65580000       0.31080000       0.74190000
   105  H          0.47210000       0.71150000       0.38260000
   106  H          0.52790000       0.28850000       0.61740000
   107  H          0.37980000       0.76640000       0.53530000
   108  H          0.62020000       0.23360000       0.46470000
   109  H          0.15980000       0.80830000       0.56110000
   110  H          0.84020000       0.19170000       0.43890000
   111  H          0.08750000       0.70610000       0.20810000
   112  H          0.91250000       0.29390000       0.79190000
   113  N          0.16138000       0.45575000       0.46265000
   114  N          0.83862000       0.54425000       0.53735000
   115  N          0.31434000       0.39613000       0.35183000
   116  N          0.68566000       0.60387000       0.64817000
   117  C          0.28491500       0.44247000       0.49656000
   118  C          0.71508500       0.55753000       0.50344000
   119  C          0.18414000       0.42233000       0.36923000
   120  C          0.81586000       0.57767000       0.63077000
   121  C          0.10425000       0.41315000       0.29696000
   122  C          0.89575000       0.58685000       0.70304000
   123  C          0.15041100       0.37866000       0.21367000
   124  C          0.84958900       0.62134000       0.78633000
   125  C          0.35916000       0.35905000       0.25766000
   126  C          0.64084000       0.64095000       0.74234000
   127  C          0.27411200       0.35126000       0.19215000
   128  C          0.72588800       0.64874000       0.80785000
   129  C          0.37678000       0.40955000       0.42957000
   130  C          0.62322000       0.59045000       0.57043000
   131  H          0.01470000       0.43250000       0.30850000
   132  H          0.98530000       0.56750000       0.69150000
   133  H          0.09300000       0.37180000       0.16450000
   134  H          0.90700000       0.62820000       0.83550000
   135  H          0.44800000       0.33960000       0.24230000
   136  H          0.55200000       0.66040000       0.75770000
   137  H          0.30340000       0.32620000       0.12900000
   138  H          0.69660000       0.67380000       0.87100000
   139  H          0.46620000       0.39720000       0.43560000
   140  H          0.53380000       0.60280000       0.56440000
   141  H          0.30180000       0.45690000       0.56160000
   142  H          0.69820000       0.54310000       0.43840000
