data_UFOYOH
_symmetry_space_group_name_H-M    'P1'
_symmetry_Int_Tables_number       1
loop_
_symmetry_equiv_pos_site_id
_symmetry_equiv_pos_as_xyz
1 x,y,z
_cell_length_a                   9.1680511
_cell_length_b                   14.7473914
_cell_length_c                   12.6001116
_cell_angle_alpha                90.0
_cell_angle_beta                 107.767613
_cell_angle_gamma                90.0
loop_
_atom_site_label
_atom_site_type_symbol
_atom_site_fract_x
_atom_site_fract_y
_atom_site_fract_z
     1  O          0.57811900       0.38191500       0.30866600
     2  O          0.92188100       0.88191500       0.19133400
     3  O          0.42188100       0.61808500       0.69133400
     4  O          0.07811900       0.11808500       0.80866600
     5  O          0.38250900       0.29005500       0.30029600
     6  O          0.11749100       0.79005500       0.19970400
     7  O          0.61749100       0.70994500       0.69970400
     8  O          0.88250900       0.20994500       0.80029600
     9  C          0.44871120       0.34655700       0.25763800
    10  C          0.05128880       0.84655700       0.24236200
    11  C          0.55128880       0.65344300       0.74236200
    12  C          0.94871120       0.15344300       0.75763800
    13  C          0.37347120       0.37653800       0.13857900
    14  C          0.12652880       0.87653800       0.36142100
    15  C          0.62652880       0.62346200       0.86142100
    16  C          0.87347120       0.12346200       0.63857900
    17  H          0.34675600       0.44093800       0.13749000
    18  H          0.15324400       0.94093800       0.36251000
    19  H          0.65324400       0.55906200       0.86251000
    20  H          0.84675600       0.05906200       0.63749000
    21  H          0.28039800       0.34080100       0.10599900
    22  H          0.21960200       0.84080100       0.39400100
    23  H          0.71960200       0.65919900       0.89400100
    24  H          0.78039800       0.15919900       0.60599900
    25  H          0.44452600       0.36725900       0.09512600
    26  H          0.05547400       0.86725900       0.40487400
    27  H          0.55547400       0.63274100       0.90487400
    28  H          0.94452600       0.13274100       0.59512600
    29  O          0.71828900       0.49970500       0.22804700
    30  O          0.78171100      -0.00029500       0.27195300
    31  O          0.28171100       0.50029500       0.77195300
    32  O          0.21828900       0.00029500       0.72804700
    33  H          0.66084500       0.46508900       0.25021700
    34  H          0.83915500       0.96508900       0.24978300
    35  H          0.33915500       0.53491100       0.74978300
    36  H          0.16084500       0.03491100       0.75021700
    37  O          0.52293100       0.59542600       0.20457900
    38  O          0.97706900       0.09542600       0.29542100
    39  O          0.47706900       0.40457400       0.79542100
    40  O          0.02293100       0.90457400       0.70457900
    41  C          0.64930120       0.57836700       0.19841900
    42  C          0.85069880       0.07836700       0.30158100
    43  C          0.35069880       0.42163300       0.80158100
    44  C          0.14930120       0.92163300       0.69841900
    45  C          0.74504140       0.64474800       0.15835900
    46  C          0.75495860       0.14474800       0.34164100
    47  C          0.25495860       0.35525200       0.84164100
    48  C          0.24504140       0.85525200       0.65835900
    49  H          0.82586400       0.66886400       0.22228600
    50  H          0.67413600       0.16886400       0.27771400
    51  H          0.17413600       0.33113600       0.77771400
    52  H          0.32586400       0.83113600       0.72228600
    53  H          0.68023200       0.69461000       0.11895400
    54  H          0.81976800       0.19461000       0.38104600
    55  H          0.31976800       0.30539000       0.88104600
    56  H          0.18023200       0.80539000       0.61895400
    57  H          0.79152300       0.61406200       0.10765200
    58  H          0.70847700       0.11406200       0.39234800
    59  H          0.20847700       0.38593800       0.89234800
    60  H          0.29152300       0.88593800       0.60765200
    61  N          0.65732900       0.36911600       0.53898700
    62  N          0.84267100       0.86911600       0.96101300
    63  N          0.34267100       0.63088400       0.46101300
    64  N          0.15732900       0.13088400       0.03898700
    65  H          0.62205800       0.37075500       0.46574900
    66  H          0.87794200       0.87075500       0.03425100
    67  H          0.37794200       0.62924500       0.53425100
    68  H          0.12205800       0.12924500       0.96574900
    69  N          0.48124100       0.25722600       0.53395700
    70  N          0.01875900       0.75722600       0.96604300
    71  N          0.51875900       0.74277400       0.46604300
    72  N         -0.01875900       0.24277400       0.03395700
    73  H          0.45634700       0.25828300       0.46075900
    74  H          0.04365300       0.75828300       0.03924100
    75  H          0.54365300       0.74171700       0.53924100
    76  H          0.95634700       0.24171700       0.96075900
    77  C          0.59113110       0.31189600       0.58893800
    78  C          0.90886890       0.81189600       0.91106200
    79  C          0.40886890       0.68810400       0.41106200
    80  C          0.09113110       0.18810400       0.08893800
    81  H          0.62390900       0.30984300       0.66806200
    82  H          0.87609100       0.80984300       0.83193800
    83  H          0.37609100       0.69015700       0.33193800
    84  H          0.12390900       0.19015700       0.16806200
    85  C          0.78538110       0.43152700       0.59250800
    86  C          0.71461890       0.93152700       0.90749200
    87  C          0.21461890       0.56847300       0.40749200
    88  C          0.28538110       0.06847300       0.09250800
    89  C          0.39498110       0.19369700       0.58396800
    90  C          0.10501890       0.69369700       0.91603200
    91  C          0.60501890       0.80630300       0.41603200
    92  C          0.89498110       0.30630300       0.08396800
    93  C          0.47308120       0.18227700       0.70860900
    94  C          0.02691880       0.68227700       0.79139100
    95  C          0.52691880       0.81772300       0.29139100
    96  C          0.97308120       0.31772300       0.20860900
    97  H          0.57889900       0.16208400       0.72139400
    98  H          0.92110100       0.66208400       0.77860600
    99  H          0.42110100       0.83791600       0.27860600
   100  H          0.07889900       0.33791600       0.22139400
   101  H          0.41760200       0.13699000       0.73828300
   102  H          0.08239800       0.63699000       0.76171700
   103  H          0.58239800       0.86301000       0.26171700
   104  H          0.91760200       0.36301000       0.23828300
   105  H          0.47295900       0.24037600       0.74630600
   106  H          0.02704100       0.74037600       0.75369400
   107  H          0.52704100       0.75962400       0.25369400
   108  H          0.97295900       0.25962400       0.24630600
   109  C          0.82032120       0.43187700       0.71863800
   110  C          0.67967880       0.93187700       0.78136200
   111  C          0.17967880       0.56812300       0.28136200
   112  C          0.32032120       0.06812300       0.21863800
   113  H          0.72811700       0.44918100       0.73761900
   114  H          0.77188300       0.94918100       0.76238100
   115  H          0.27188300       0.55081900       0.26238100
   116  H          0.22811700       0.05081900       0.23761900
   117  H          0.90231500       0.47548100       0.75150800
   118  H          0.59768500       0.97548100       0.74849200
   119  H          0.09768500       0.52451900       0.24849200
   120  H          0.40231500       0.02451900       0.25150800
   121  H          0.85301200       0.37115600       0.74796300
   122  H          0.64698800       0.87115600       0.75203700
   123  H          0.14698800       0.62884400       0.25203700
   124  H          0.35301200       0.12884400       0.24796300
   125  C          0.92428120       0.39876800       0.56012900
   126  C          0.57571880       0.89876800       0.93987100
   127  C          0.07571880       0.60123200       0.43987100
   128  C          0.42428120       0.10123200       0.06012900
   129  H          0.95168300       0.33732200       0.58895000
   130  H          0.54831700       0.83732200       0.91105000
   131  H          0.04831700       0.66267800       0.41105000
   132  H          0.45168300       0.16267800       0.08895000
   133  H          0.01088900       0.43965200       0.59191800
   134  H          0.48911100       0.93965200       0.90808200
   135  H         -0.01088900       0.56034800       0.40808200
   136  H          0.51088900       0.06034800       0.09191800
   137  H          0.89929300       0.39832700       0.47875100
   138  H          0.60070700       0.89832700       0.02124900
   139  H          0.10070700       0.60167300       0.52124900
   140  H          0.39929300       0.10167300       0.97875100
   141  C          0.73628130       0.52608700       0.54526900
   142  C          0.76371870       0.02608700       0.95473100
   143  C          0.26371870       0.47391300       0.45473100
   144  C          0.23628130       0.97391300       0.04526900
   145  H          0.70834700       0.52416200       0.46376400
   146  H          0.79165300       0.02416200       0.03623600
   147  H          0.29165300       0.47583800       0.53623600
   148  H          0.20834700       0.97583800       0.96376400
   149  H          0.82117700       0.56867300       0.57428600
   150  H          0.67882300       0.06867300       0.92571400
   151  H          0.17882300       0.43132700       0.42571400
   152  H          0.32117700       0.93132700       0.07428600
   153  H          0.64784300       0.54600700       0.56746300
   154  H          0.85215700       0.04600700       0.93253700
   155  H          0.35215700       0.45399300       0.43253700
   156  H          0.14784300       0.95399300       0.06746300
   157  C          0.23381120       0.23207900       0.56206100
   158  C          0.26618880       0.73207900       0.93793900
   159  C          0.76618880       0.76792100       0.43793900
   160  C          0.73381120       0.26792100       0.06206100
   161  H          0.24007400       0.29271300       0.59496500
   162  H          0.25992600       0.79271300       0.90503500
   163  H          0.75992600       0.70728700       0.40503500
   164  H          0.74007400       0.20728700       0.09496500
   165  H          0.17451000       0.19221400       0.59562800
   166  H          0.32549000       0.69221400       0.90437200
   167  H          0.82549000       0.80778600       0.40437200
   168  H          0.67451000       0.30778600       0.09562800
   169  H          0.18339600       0.23593500       0.48152000
   170  H          0.31660400       0.73593500       0.01848000
   171  H          0.81660400       0.76406500       0.51848000
   172  H          0.68339600       0.26406500       0.98152000
   173  C          0.38898150       0.10274800       0.52479100
   174  C          0.11101850       0.60274800       0.97520900
   175  C          0.61101850       0.89725200       0.47520900
   176  C          0.88898150       0.39725200       0.02479100
   177  H          0.34008200       0.11085100       0.44456700
   178  H          0.15991800       0.61085100       0.05543300
   179  H          0.65991800       0.88914900       0.55543300
   180  H          0.84008200       0.38914900       0.94456700
   181  H          0.32971100       0.05930800       0.55380100
   182  H          0.17028900       0.55930800       0.94619900
   183  H          0.67028900       0.94069200       0.44619900
   184  H          0.82971100       0.44069200       0.05380100
   185  H          0.49328900       0.07970900       0.53802400
   186  H          0.00671100       0.57970900       0.96197600
   187  H          0.50671100       0.92029100       0.46197600
   188  H         -0.00671100       0.42029100       0.03802400
