data_UFULEQ
_symmetry_space_group_name_H-M    'P1'
_symmetry_Int_Tables_number       1
loop_
_symmetry_equiv_pos_site_id
_symmetry_equiv_pos_as_xyz
1 x,y,z
_cell_length_a                   9.8224
_cell_length_b                   11.2914
_cell_length_c                   24.1351
_cell_angle_alpha                88.70615
_cell_angle_beta                 84.762
_cell_angle_gamma                80.42213
loop_
_atom_site_label
_atom_site_type_symbol
_atom_site_fract_x
_atom_site_fract_y
_atom_site_fract_z
     1  I          0.83433600       0.77110400       0.77458200
     2  I          0.16566400       0.22889600       0.22541800
     3  O         -0.00464000       0.40854000       0.62052000
     4  O          0.00464000       0.59146000       0.37948000
     5  N          0.48894000       0.68574000       0.66062180
     6  N          0.51106000       0.31426000       0.33937820
     7  H          0.48659500       0.61244100       0.65235500
     8  H          0.51340500       0.38755900       0.34764500
     9  N          0.22614000       0.35624000       0.61458170
    10  N          0.77386000       0.64376000       0.38541830
    11  H          0.30383900       0.37576100       0.62132900
    12  H          0.69616100       0.62423900       0.37867100
    13  O          0.36565000       0.85584000       0.69652000
    14  O          0.63435000       0.14416000       0.30348000
    15  C          0.12045000       0.53874000       0.66192000
    16  C          0.87955000       0.46126000       0.33808000
    17  C          0.26355000       0.24944000       0.52462000
    18  C          0.73645000       0.75056000       0.47538000
    19  C          0.23855000       0.59104000       0.65742000
    20  C          0.76145000       0.40896000       0.34258000
    21  H          0.31537500       0.55629900       0.63448800
    22  H          0.68462500       0.44370100       0.36551200
    23  C          0.33485000       0.26095000       0.41012000
    24  C          0.66515000       0.73905000       0.58988000
    25  C          0.24445000       0.69375000       0.68642000
    26  C          0.75555000       0.30625000       0.31358000
    27  C          0.37246000       0.75365000       0.68142000
    28  C          0.62754000       0.24635000       0.31858000
    29  C          0.19865000       0.34005000       0.49232000
    30  C          0.80135000       0.65995000       0.50768000
    31  H          0.12971500       0.39826500       0.50884600
    32  H          0.87028500       0.60173500       0.49115400
    33  C          0.01095000       0.69485000       0.72442000
    34  C          0.98905000       0.30515000       0.27558000
    35  C          0.00555000       0.59165000       0.69592000
    36  C         -0.00555000       0.40835000       0.30408000
    37  H          0.92531000       0.55732400       0.69946900
    38  H          0.07469000       0.44267600       0.30053100
    39  C          0.36276000       0.16455000       0.49822000
    40  C          0.63724000       0.83545000       0.50178000
    41  H          0.40720400       0.10187700       0.51903000
    42  H          0.59279600       0.89812300       0.48097000
    43  C          0.10895000       0.42965000       0.63022000
    44  C          0.89105000       0.57035000       0.36978000
    45  C          0.61946000       0.72976000       0.65132000
    46  C          0.38054000       0.27024000       0.34868000
    47  H          0.69001700       0.67587000       0.66929200
    48  H          0.30998300       0.32413000       0.33070800
    49  H          0.61008600       0.80817100       0.66814000
    50  H          0.38991400       0.19182900       0.33186000
    51  C          0.22616000       0.24315000       0.58632000
    52  C          0.77384000       0.75685000       0.41368000
    53  H          0.13479100       0.22071800       0.59281500
    54  H          0.86520900       0.77928200       0.40718500
    55  H          0.29159400       0.18066300       0.60222000
    56  H          0.70840600       0.81933700       0.39778000
    57  C          0.23405000       0.34575000       0.43572000
    58  C          0.76595000       0.65425000       0.56428000
    59  H          0.18896300       0.40778800       0.41468400
    60  H          0.81103700       0.59221200       0.58531600
    61  C          0.12935000       0.74655000       0.71982000
    62  C          0.87065000       0.25345000       0.28018000
    63  H          0.13178800       0.81638800       0.73909600
    64  H          0.86821200       0.18361200       0.26090400
    65  C          0.39836000       0.16916000       0.44193000
    66  C          0.60164000       0.83084000       0.55807000
    67  H          0.46572300       0.10977800       0.42522700
    68  H          0.53427700       0.89022200       0.57477300
    69  I          0.47986300       0.60179500       0.23831200
    70  I          0.52013700       0.39820500       0.76168800
    71  N          0.03965000       0.31564000       0.09087190
    72  N          0.96035000       0.68436000       0.90912810
    73  H          0.00796800       0.25083400       0.08494600
    74  H         -0.00796800       0.74916600       0.91505400
    75  N          0.67435000       0.04734000       0.14082000
    76  N          0.32565000       0.95266000       0.85918000
    77  H          0.76027300       0.05461500       0.13497800
    78  H          0.23972700       0.94538500       0.86502200
    79  O         -0.00615000       0.50224000       0.12462000
    80  O          0.00615000       0.49776000       0.87538000
    81  O          0.45685000       0.14355000       0.15832000
    82  O          0.54315000       0.85645000       0.84168000
    83  C          0.77564000       0.74175000       0.98378000
    84  C          0.22436000       0.25825000       0.01622000
    85  C          0.76915000       0.27495000       0.13652000
    86  C          0.23085000       0.72505000       0.86348000
    87  H          0.82533800       0.21242200       0.11688200
    88  H          0.17466200       0.78757800       0.88311800
    89  C          0.81844000       0.38144000       0.14302000
    90  C          0.18156000       0.61856000       0.85698000
    91  C          0.63814000       0.25935000       0.15872000
    92  C          0.36186000       0.74065000       0.84128000
    93  C          0.65434000       0.91565000       0.03313000
    94  C          0.34566000       0.08435000       0.96687000
    95  H          0.60106600      -0.00816700       0.03253300
    96  H          0.39893400       0.00816700       0.96746700
    97  C          0.69524000       0.85524000       0.98317000
    98  C          0.30476000       0.14476000       0.01683000
    99  H          0.66904200       0.89047900       0.94980300
   100  H          0.33095800       0.10952100       0.05019700
   101  C          0.73443000       0.47375000       0.17222000
   102  C          0.26557000       0.52625000       0.82778000
   103  H          0.76619800       0.54564900       0.17709900
   104  H          0.23380200       0.45435100       0.82290100
   105  C          0.77223000       0.75525000       0.08262000
   106  C          0.22777000       0.24475000       0.91738000
   107  H          0.79972300       0.72113800       0.11603500
   108  H          0.20027700       0.27886200       0.88396500
   109  C          0.69024000       0.86635000       0.08262000
   110  C          0.30976000       0.13365000       0.91738000
   111  C          0.58164000       0.14576000       0.15292000
   112  C          0.41836000       0.85424000       0.84708000
   113  C          0.55334000       0.35306000       0.18732000
   114  C          0.44666000       0.64694000       0.81268000
   115  H          0.46419600       0.34503400       0.20156800
   116  H          0.53580400       0.65496600       0.79843200
   117  C          0.60393000       0.45925000       0.19422000
   118  C          0.39607000       0.54075000       0.80578000
   119  C          0.81453000       0.69365000       0.03363000
   120  C          0.18547000       0.30635000       0.96637000
   121  H          0.87023100       0.61858200       0.03448700
   122  H          0.12976900       0.38141800       0.96551300
   123  C          0.95834000       0.40505000       0.11912000
   124  C          0.04166000       0.59495000       0.88088000
   125  C          0.18167000       0.32617000       0.06993000
   126  C          0.81833000       0.67383000       0.93007000
   127  H          0.24429500       0.29462300       0.09752200
   128  H          0.75570500       0.70537700       0.90247800
   129  H          0.18850500       0.41012300       0.06369000
   130  H          0.81149500       0.58987700       0.93631000
   131  C          0.63773000       0.92784000       0.13683000
   132  C          0.36227000       0.07216000       0.86317000
   133  H          0.53771900       0.93469100       0.14147100
   134  H          0.46228100       0.06530900       0.85852900
   135  H          0.67515100       0.87833900       0.16695600
   136  H          0.32484900       0.12166100       0.83304400
   137  O         -0.00124000       0.05553000       0.09754170
   138  O          0.00124000       0.94447000       0.90245830
   139  N          0.11945000       0.87016000       0.10182000
   140  N          0.88055000       0.12984000       0.89818000
   141  C          0.03366000       0.94306000       0.01362000
   142  C          0.96634000       0.05694000       0.98638000
   143  H          0.97763100       0.88087300       0.01022700
   144  H          0.02236900       0.11912700       0.98977300
   145  H          0.12412900       0.91620300      -0.00564800
   146  H          0.87587100       0.08379700       0.00564800
   147  C          0.04945000       0.96045000       0.07382000
   148  C          0.95055000       0.03955000       0.92618000
   149  O          0.93842000       0.94825000       0.22203000
   150  O          0.06158000       0.05175000       0.77797000
   151  C          0.17398000       0.75154000       0.07943000
   152  C          0.82602000       0.24846000       0.92057000
   153  H          0.12765500       0.73867400       0.04678200
   154  H          0.87234500       0.26132600       0.95321800
   155  H          0.15641100       0.69069300       0.10693500
   156  H          0.84358900       0.30930700       0.89306500
   157  C          0.02979000       0.85434000       0.19933000
   158  C          0.97021000       0.14566000       0.80067000
   159  C          0.13998000       0.88773000       0.16073000
   160  C          0.86002000       0.11227000       0.83927000
   161  H          0.22740400       0.84037900       0.16908000
   162  H          0.77259600       0.15962100       0.83092000
   163  H          0.14562000       0.97161000       0.16623200
   164  H          0.85438000       0.02839000       0.83376800
   165  C         -0.00751300       0.75112000       0.21814000
   166  C          0.00751300       0.24888000       0.78186000
   167  H          0.03594900       0.67395200       0.20844300
   168  H          0.96405100       0.32604800       0.79155700
   169  C          0.87178600       0.78389000       0.25614000
   170  C          0.12821400       0.21611000       0.74386000
   171  H          0.82234000       0.73152500       0.27638200
   172  H          0.17766000       0.26847500       0.72361800
   173  C          0.84438700       0.90129000       0.25704000
   174  C          0.15561300       0.09871000       0.74296000
   175  H          0.77119800       0.94620100       0.27845400
   176  H          0.22880200       0.05379900       0.72154600
   177  C          0.33761200       0.74038800       0.06307000
   178  C          0.66238800       0.25961200       0.93693000
   179  H          0.35184700       0.79657600       0.03287700
   180  H          0.64815300       0.20342400       0.96712300
   181  H          0.37960900       0.76547300       0.09468000
   182  H          0.62039100       0.23452700       0.90532000
   183  C          0.40771500       0.62848500       0.04697000
   184  C          0.59228500       0.37151500       0.95303000
   185  H          0.36724600       0.56292100       0.06463300
   186  H          0.63275400       0.43707900       0.93536700
   187  H          0.50623800       0.61789800       0.05120300
   188  H          0.49376200       0.38210200       0.94879700
   189  C          0.37320000       0.65170000       0.98623000
   190  C          0.62680000       0.34830000       0.01377000
   191  H          0.27440000       0.67178300       0.98466300
   192  H          0.72560000       0.32821700       0.01533700
   193  H          0.41634000       0.71722300       0.97151300
   194  H          0.58366000       0.28277700       0.02848700
   195  H          0.40775000       0.58094300       0.96483300
   196  H          0.59225000       0.41905700       0.03516700
   197  O          0.51795000       0.44804000       0.59787170
   198  O          0.48205000       0.55196000       0.40212830
   199  C          0.58985000       0.40455000       0.55712000
   200  C          0.41015000       0.59545000       0.44288000
   201  N          0.69956000       0.32286000       0.56412000
   202  N          0.30044000       0.67714000       0.43588000
   203  O          0.55096000       0.17686000       0.63923000
   204  O          0.44904000       0.82314000       0.36077000
   205  C          0.55436000       0.44615000       0.50002000
   206  C          0.44564000       0.55385000       0.49998000
   207  H          0.63736800       0.46355800       0.47873000
   208  H          0.36263200       0.53644200       0.52127000
   209  H          0.52310600       0.38141400       0.48147500
   210  H          0.47689400       0.61858600       0.51852500
   211  C          0.67656000       0.19465000       0.64823000
   212  C          0.32344000       0.80535000       0.35177000
   213  C          0.73866000       0.28967000       0.61963000
   214  C          0.26134000       0.71033000       0.38037000
   215  H          0.83851100       0.26565800       0.61725800
   216  H          0.16148900       0.73434200       0.38274200
   217  H          0.71617500       0.36084600       0.64259000
   218  H          0.28382500       0.63915400       0.35741000
   219  C          0.60881100       0.05878000       0.70824000
   220  C          0.39118900       0.94122000       0.29176000
   221  H          0.60717200       0.00486100       0.73789000
   222  H          0.39282800      -0.00486100       0.26211000
   223  C          0.71331000       0.12701000       0.69094000
   224  C          0.28669000       0.87299000       0.30906000
   225  H          0.79583500       0.12427800       0.70731900
   226  H          0.20416500       0.87572200       0.29268100
   227  C          0.51941300       0.08699000       0.67475000
   228  C          0.48058700       0.91301000       0.32525000
   229  H          0.44081500       0.05124100       0.67394000
   230  H          0.55918500       0.94875900       0.32606000
   231  C          0.80061700       0.19437000       0.49435000
   232  C          0.19938300       0.80563000       0.50565000
   233  H          0.71070100       0.20998600       0.47949700
   234  H          0.28929900       0.79001400       0.52050300
   235  H          0.79666700       0.13303100       0.52292200
   236  H          0.20333300       0.86696900       0.47707800
   237  C          0.82131100       0.29571000       0.51855000
   238  C          0.17868900       0.70429000       0.48145000
   239  H          0.81975600       0.36109900       0.49162500
   240  H          0.18024400       0.63890100       0.50837500
   241  H          0.90948500       0.28340400       0.53461800
   242  H          0.09051500       0.71659600       0.46538200
   243  C          0.91171400       0.14201300       0.44615000
   244  C          0.08828600       0.85798700       0.55385000
   245  H          0.91622300       0.21082600       0.42165200
   246  H          0.08377700       0.78917400       0.57834800
   247  H         -0.00255000       0.13078200       0.46407300
   248  H          0.00255000       0.86921800       0.53592700
   249  C          0.93130000       0.05361400       0.41197000
   250  C          0.06870000       0.94638600       0.58803000
   251  H          0.96097100       0.98010600       0.43136300
   252  H          0.03902900       0.01989400       0.56863700
   253  H          0.00115100       0.06560600       0.38269300
   254  H         -0.00115100       0.93439400       0.61730700
   255  H          0.84612100       0.04934600       0.39612300
   256  H          0.15387900       0.95065400       0.60387700
