data_UFUXEZ
_symmetry_space_group_name_H-M    'P1'
_symmetry_Int_Tables_number       1
loop_
_symmetry_equiv_pos_site_id
_symmetry_equiv_pos_as_xyz
1 x,y,z
_cell_length_a                   12.5083
_cell_length_b                   6.089112
_cell_length_c                   17.6804
_cell_angle_alpha                90.0
_cell_angle_beta                 97.133
_cell_angle_gamma                90.0
loop_
_atom_site_label
_atom_site_type_symbol
_atom_site_fract_x
_atom_site_fract_y
_atom_site_fract_z
     1  C          0.16281150       0.43703000       0.70858100
     2  C          0.83718850       0.93703000       0.29141900
     3  H          0.13890000       0.51760000       0.75280000
     4  H          0.86110000       0.01760000       0.24720000
     5  N          0.11813160       0.21613000       0.70811100
     6  N          0.88186840       0.71613000       0.29188900
     7  H          0.13720000       0.12360000       0.69131600
     8  H          0.86280000       0.62360000       0.30868400
     9  S          0.01178400       0.15026800       0.74615200
    10  S         -0.01178400       0.65026800       0.25384800
    11  O          0.95052880      -0.00613000       0.69849800
    12  O          0.04947120       0.49387000       0.30150200
    13  O          0.96209880       0.35503000       0.76383800
    14  O          0.03790120       0.85503000       0.23616200
    15  C          0.05604160       0.01724000       0.83320100
    16  C          0.94395840       0.51724000       0.16679900
    17  C          0.12122160       0.13054000       0.88988110
    18  C          0.87877840       0.63054000       0.11011890
    19  H          0.14520000       0.27500000       0.88080000
    20  H          0.85480000       0.77500000       0.11920000
    21  C          0.15066170       0.02974000       0.95983120
    22  C          0.84933830       0.52974000       0.04016880
    23  H          0.19500000       0.10610000      -0.00130000
    24  H          0.80500000       0.60610000       0.00130000
    25  C          0.11578180       0.81736000       0.97356120
    26  C          0.88421820       0.31736000       0.02643880
    27  C          0.05122000       0.70906000       0.91600130
    28  C          0.94878000       0.20906000       0.08399870
    29  H          0.02670000       0.56480000       0.92490000
    30  H          0.97330000       0.06480000       0.07510000
    31  C          0.02152180       0.80736000       0.84530120
    32  C          0.97847820       0.30736000       0.15469880
    33  H          0.97810000       0.73040000       0.80610000
    34  H          0.02190000       0.23040000       0.19390000
    35  C          0.14832000       0.70725000       0.04933130
    36  C          0.85168000       0.20725000       0.95066870
    37  H          0.11720000       0.55940000       0.04850000
    38  H          0.88280000       0.05940000       0.95150000
    39  H          0.12170000       0.79360000       0.08990000
    40  H          0.87830000       0.29360000       0.91010000
    41  H          0.22700000       0.69720000       0.05880000
    42  H          0.77300000       0.19720000       0.94120000
    43  C          0.12651140       0.57123000       0.63577100
    44  C          0.87348860       0.07123000       0.36422900
    45  O          0.14757120       0.77002000       0.64042800
    46  O          0.85242880       0.27002000       0.35957200
    47  O          0.08225110       0.47412000       0.57762700
    48  O          0.91774890       0.97412000       0.42237300
    49  C          0.28772150       0.42864000       0.72024110
    50  C          0.71227850       0.92864000       0.27975890
    51  H          0.31250000       0.31890000       0.68490000
    52  H          0.68750000       0.81890000       0.31510000
    53  H          0.31630000       0.57360000       0.70730000
    54  H          0.68370000       0.07360000       0.29270000
    55  C          0.33256150       0.36994000       0.80065110
    56  C          0.66743850       0.86994000       0.19934890
    57  C          0.32571160       0.52094000       0.85932120
    58  C          0.67428840       0.02094000       0.14067880
    59  H          0.29460000       0.66110000       0.84770000
    60  H          0.70540000       0.16110000       0.15230000
    61  C          0.36367180       0.46945000       0.93416120
    62  C          0.63632820       0.96945000       0.06583880
    63  H          0.35710000       0.57200000       0.97380000
    64  H          0.64290000       0.07200000       0.02620000
    65  C          0.41162000       0.26565000       0.95080130
    66  C          0.58838000       0.76565000       0.04919870
    67  H          0.43870000       0.23000000       0.00190000
    68  H          0.56130000       0.73000000      -0.00190000
    69  C          0.41995190       0.11605000       0.89358130
    70  C          0.58004810       0.61605000       0.10641870
    71  H          0.45260000      -0.02270000       0.90530000
    72  H          0.54740000       0.47730000       0.09470000
    73  C          0.38059170       0.16724000       0.81828110
    74  C          0.61940830       0.66724000       0.18171890
    75  H          0.38660000       0.06330000       0.77900000
    76  H          0.61340000       0.56330000       0.22100000
    77  C          0.19445160       0.07994000       0.47195110
    78  C          0.80554840       0.57994000       0.52804890
    79  H          0.17980000       0.21030000       0.43780000
    80  H          0.82020000       0.71030000       0.56220000
    81  N          0.10486120       0.06303000       0.52086900
    82  N          0.89513880       0.56303000       0.47913100
    83  H          0.04160000       0.03690000       0.49090000
    84  H          0.95840000       0.53690000       0.50910000
    85  H          0.09990000       0.19110000       0.54670000
    86  H          0.90010000       0.69110000       0.45330000
    87  H          0.11880000       0.95080000       0.55460000
    88  H          0.88120000       0.45080000       0.44540000
    89  C          0.30062150       0.11824000       0.52119100
    90  C          0.69937850       0.61824000       0.47880900
    91  C          0.34838160       0.95226000       0.56887110
    92  C          0.65161840       0.45226000       0.43112890
    93  H          0.31240000       0.81580000       0.57220000
    94  H          0.68760000       0.31580000       0.42780000
    95  C          0.44821160      -0.01374000       0.61142120
    96  C          0.55178840       0.48626000       0.38857880
    97  H          0.48020000       0.87330000       0.64370000
    98  H          0.51980000       0.37330000       0.35630000
    99  C          0.50111160       0.18514000       0.60686110
   100  C          0.49888840       0.68514000       0.39313890
   101  H          0.56920000       0.20770000       0.63610000
   102  H          0.43080000       0.70770000       0.36390000
   103  C          0.45541180       0.35044000       0.55999130
   104  C          0.54458820       0.85044000       0.44000870
   105  H          0.49170000       0.48650000       0.55680000
   106  H          0.50830000      -0.01350000       0.44320000
   107  C          0.35576170       0.31534000       0.51754110
   108  C          0.64423830       0.81534000       0.48245890
   109  H          0.32450000       0.42900000       0.48520000
   110  H          0.67550000       0.92900000       0.51480000
   111  C          0.19402180       0.87755000       0.42207130
   112  C          0.80597820       0.37755000       0.57792870
   113  H          0.20040000       0.74600000       0.45420000
   114  H          0.79960000       0.24600000       0.54580000
   115  H          0.25490000       0.88420000       0.39220000
   116  H          0.74510000       0.38420000       0.60780000
   117  H          0.12650000       0.87170000       0.38750000
   118  H          0.87350000       0.37170000       0.61250000
   119  O          0.63506130       0.61507000       0.70734900
   120  O          0.36493870       0.11507000       0.29265100
   121  C          0.63023000       0.47373000       0.77077180
   122  C          0.36977000       0.97373000       0.22922820
   123  H          0.69530000       0.38010000       0.77720000
   124  H          0.30470000       0.88010000       0.22280000
   125  H          0.56680000       0.37630000       0.76000000
   126  H          0.43320000       0.87630000       0.24000000
   127  C          0.62283000       0.59002000       0.84120170
   128  C          0.37717000       0.09002000       0.15879830
   129  H          0.55260000       0.66710000       0.83740000
   130  H          0.44740000       0.16710000       0.16260000
   131  H          0.62480000       0.48240000       0.88330000
   132  H          0.37520000      -0.01760000       0.11670000
   133  O          0.70599190       0.74406000       0.85890110
   134  O          0.29400810       0.24406000       0.14109890
   135  C          0.71683000       0.88813000       0.79407180
   136  C          0.28317000       0.38813000       0.20592820
   137  H          0.65460000      -0.01010000       0.78670000
   138  H          0.34540000       0.48990000       0.21330000
   139  H          0.78310000      -0.02280000       0.80510000
   140  H          0.21690000       0.47720000       0.19490000
   141  C          0.72172000       0.76324000       0.72452160
   142  C          0.27828000       0.26324000       0.27547840
   143  H          0.72240000       0.86700000       0.68150000
   144  H          0.27760000       0.36700000       0.31850000
   145  H          0.79010000       0.67970000       0.72940000
   146  H          0.20990000       0.17970000       0.27060000
