data_UGICAR
_symmetry_space_group_name_H-M    'P1'
_symmetry_Int_Tables_number       1
loop_
_symmetry_equiv_pos_site_id
_symmetry_equiv_pos_as_xyz
1 x,y,z
_cell_length_a                   4.09522
_cell_length_b                   28.28951
_cell_length_c                   16.79676
_cell_angle_alpha                90.0
_cell_angle_beta                 96.94801
_cell_angle_gamma                90.0
loop_
_atom_site_label
_atom_site_type_symbol
_atom_site_fract_x
_atom_site_fract_y
_atom_site_fract_z
     1  I          0.46281800       0.70465200       0.59032300
     2  I          0.46281800       0.29534800       0.09032300
     3  I         -0.03718200       0.20465200       0.59032300
     4  I         -0.03718200       0.79534800       0.09032300
     5  Cl         0.26987000       0.78619900       0.44861140
     6  Cl         0.26987000       0.21380100       0.94861140
     7  Cl         0.76987000       0.28619900       0.44861140
     8  Cl         0.76987000       0.71380100       0.94861140
     9  I          0.80655900       0.92882200       0.64861400
    10  I          0.80655900       0.07117800       0.14861400
    11  I          0.30655900       0.42882200       0.64861400
    12  I          0.30655900       0.57117800       0.14861400
    13  Cl        -0.03217000       0.88400800       0.47317140
    14  Cl        -0.03217000       0.11599200       0.97317140
    15  Cl         0.46783000       0.38400800       0.47317140
    16  Cl         0.46783000       0.61599200       0.97317140
    17  Cl         0.95684000       0.84522800       0.78724130
    18  Cl         0.95684000       0.15477200       0.28724130
    19  Cl         0.45684000       0.34522800       0.78724130
    20  Cl         0.45684000       0.65477200       0.28724130
    21  Cl         0.27606000       0.74917700       0.76422130
    22  Cl         0.27606000       0.25082300       0.26422130
    23  Cl         0.77606000       0.24917700       0.76422130
    24  Cl         0.77606000       0.75082300       0.26422130
    25  C          0.26341500       0.77172000       0.60754000
    26  C          0.26341500       0.22828000       0.10754000
    27  C          0.76341500       0.27172000       0.60754000
    28  C          0.76341500       0.72828000       0.10754000
    29  C          0.18971700       0.80252000       0.54414000
    30  C          0.18971700       0.19748000       0.04414000
    31  C          0.68971700       0.30252000       0.54414000
    32  C          0.68971700       0.69748000       0.04414000
    33  C          0.05471900       0.84722000       0.55485000
    34  C          0.05471900       0.15278000       0.05485000
    35  C          0.55471900       0.34722000       0.55485000
    36  C          0.55471900       0.65278000       0.05485000
    37  C         -0.01461700       0.86112000       0.63005000
    38  C         -0.01461700       0.13888000       0.13005000
    39  C          0.48538300       0.36112000       0.63005000
    40  C          0.48538300       0.63888000       0.13005000
    41  C          0.04891700       0.82992000       0.69394000
    42  C          0.04891700       0.17008000       0.19394000
    43  C          0.54891700       0.32992000       0.69394000
    44  C          0.54891700       0.67008000       0.19394000
    45  C          0.19131700       0.78582000       0.68284000
    46  C          0.19131700       0.21418000       0.18284000
    47  C          0.69131700       0.28582000       0.68284000
    48  C          0.69131700       0.71418000       0.18284000
    49  O          0.19920000       0.46532000       0.21144000
    50  O          0.19920000       0.53468000       0.71144000
    51  O          0.69920000       0.96532000       0.21144000
    52  O          0.69920000       0.03468000       0.71144000
    53  N          0.70241500       0.61382000       0.54254000
    54  N          0.70241500       0.38618000       0.04254000
    55  N          0.20241500       0.11382000       0.54254000
    56  N          0.20241500       0.88618000       0.04254000
    57  C          0.91511800       0.58402000       0.42655000
    58  C          0.91511800       0.41598000       0.92655000
    59  C          0.41511800       0.08402000       0.42655000
    60  C          0.41511800       0.91598000       0.92655000
    61  H          0.01012900       0.59047000       0.38016000
    62  H          0.01012900       0.40953000       0.88016000
    63  H          0.51012900       0.09047000       0.38016000
    64  H          0.51012900       0.90953000       0.88016000
    65  O          0.03651800       0.41822000       0.30724000
    66  O          0.03651800       0.58178000       0.80724000
    67  O          0.53651800       0.91822000       0.30724000
    68  O          0.53651800       0.08178000       0.80724000
    69  C          0.83720000       0.62013000       0.47585000
    70  C          0.83720000       0.37987000       0.97585000
    71  C          0.33720000       0.12013000       0.47585000
    72  C          0.33720000       0.87987000       0.97585000
    73  H          0.88237000       0.65094000       0.46117500
    74  H          0.88237000       0.34906000       0.96117500
    75  H          0.38237000       0.15094000       0.46117500
    76  H          0.38237000       0.84906000       0.96117500
    77  C          0.64220000       0.56903000       0.56225000
    78  C          0.64220000       0.43097000       0.06225000
    79  C          0.14220000       0.06903000       0.56225000
    80  C          0.14220000       0.93097000       0.06225000
    81  H          0.54650800       0.56355300       0.60881000
    82  H          0.54650800       0.43644700       0.10881000
    83  H          0.04650800       0.06355300       0.60881000
    84  H          0.04650800       0.93644700       0.10881000
    85  C          0.71531900       0.53093000       0.51725000
    86  C          0.71531900       0.46907000       0.01725000
    87  C          0.21531900       0.03093000       0.51725000
    88  C          0.21531900       0.96907000       0.01725000
    89  H          0.67383800       0.50042500       0.53404700
    90  H          0.67383800       0.49957500       0.03404700
    91  H          0.17383800       0.00042500       0.53404700
    92  H          0.17383800      -0.00042500       0.03404700
    93  C          0.84991700       0.53792000       0.44704000
    94  C          0.84991700       0.46208000       0.94704000
    95  C          0.34991700       0.03792000       0.44704000
    96  C          0.34991700       0.96208000       0.94704000
    97  C          0.92431700       0.49712000       0.39684000
    98  C          0.92431700       0.50288000       0.89684000
    99  C          0.42431700      -0.00288000       0.39684000
   100  C          0.42431700       0.00288000       0.89684000
   101  H          0.89838800       0.46699700       0.41734400
   102  H          0.89838800       0.53300300       0.91734400
   103  H          0.39838800       0.96699700       0.41734400
   104  H          0.39838800       0.03300300       0.91734400
   105  C          0.02320000       0.50013000       0.32615000
   106  C          0.02320000       0.49987000       0.82615000
   107  C          0.52320000       0.00013000       0.32615000
   108  C          0.52320000      -0.00013000       0.82615000
   109  H          0.04813600       0.53034200       0.30583000
   110  H          0.04813600       0.46965800       0.80583000
   111  H          0.54813600       0.03034200       0.30583000
   112  H          0.54813600       0.96965800       0.80583000
   113  C          0.09820000       0.46053000       0.27575000
   114  C          0.09820000       0.53947000       0.77575000
   115  C          0.59820000       0.96053000       0.27575000
   116  C          0.59820000       0.03947000       0.77575000
   117  C          0.12030000       0.37713000       0.26256000
   118  C          0.12030000       0.62287000       0.76256000
   119  C          0.62030000       0.87713000       0.26256000
   120  C          0.62030000       0.12287000       0.76256000
   121  H          0.03482900       0.38091100       0.20706500
   122  H          0.03482900       0.61908900       0.70706500
   123  H          0.53482900       0.88091100       0.20706500
   124  H          0.53482900       0.11908900       0.70706500
   125  H          0.02466300       0.34945800       0.28356700
   126  H          0.02466300       0.65054200       0.78356700
   127  H          0.52466300       0.84945800       0.28356700
   128  H          0.52466300       0.15054200       0.78356700
   129  H          0.35436800       0.37371400       0.26731500
   130  H          0.35436800       0.62628600       0.76731500
   131  H          0.85436800       0.87371400       0.26731500
   132  H          0.85436800       0.12628600       0.76731500
