data_UGICEV
_symmetry_space_group_name_H-M    'P1'
_symmetry_Int_Tables_number       1
loop_
_symmetry_equiv_pos_site_id
_symmetry_equiv_pos_as_xyz
1 x,y,z
_cell_length_a                   4.06475
_cell_length_b                   9.240611
_cell_length_c                   37.4734
_cell_angle_alpha                87.3844
_cell_angle_beta                 88.7214
_cell_angle_gamma                80.1104
loop_
_atom_site_label
_atom_site_type_symbol
_atom_site_fract_x
_atom_site_fract_y
_atom_site_fract_z
     1  I          0.73073000       0.78017130       0.43632300
     2  I          0.26927000       0.21982870       0.56367700
     3  Cl         0.00051500       0.66815000       0.51882140
     4  Cl        -0.00051500       0.33185000       0.48117860
     5  Cl         0.23261500       0.86216000       0.57457120
     6  Cl         0.76738500       0.13784000       0.42542880
     7  C          0.88830000       0.91081600       0.47464000
     8  C          0.11170000       0.08918400       0.52536000
     9  C         -0.00060000       0.84981900       0.50775000
    10  C          0.00060000       0.15018100       0.49225000
    11  C          0.10140000       0.93971500       0.53364000
    12  C          0.89860000       0.06028500       0.46636000
    13  O          0.90350000       0.62520000       0.21435000
    14  O          0.09650000       0.37480000       0.78565000
    15  N          0.52540000       0.60320000       0.38165000
    16  N          0.47460000       0.39680000       0.61835000
    17  C          0.61750000       0.61720000       0.34745000
    18  C          0.38250000       0.38280000       0.65255000
    19  H          0.71734300       0.70032800       0.34068200
    20  H          0.28265700       0.29967200       0.65931800
    21  O          0.76250000       0.41751800       0.19684000
    22  O          0.23750000       0.58248200       0.80316000
    23  C          0.40250000       0.48420000       0.39195000
    24  C          0.59750000       0.51580000       0.60805000
    25  H          0.34970100       0.46821900       0.41641500
    26  H          0.65029900       0.53178100       0.58358500
    27  C          0.34760000       0.38020000       0.36695000
    28  C          0.65240000       0.61980000       0.63305000
    29  H          0.24638900       0.29863700       0.37473900
    30  H          0.75361100       0.70136300       0.62526100
    31  C          0.43750000       0.39620000       0.33115000
    32  C          0.56250000       0.60380000       0.66885000
    33  H          0.40575900       0.32621400       0.31427700
    34  H          0.59424100       0.67378600       0.68572300
    35  C          0.57950000       0.52261900       0.32104000
    36  C          0.42050000       0.47738100       0.67896000
    37  C          0.67450000       0.55120000       0.28415000
    38  C          0.32550000       0.44880000       0.71585000
    39  H          0.74234800       0.64368000       0.27924200
    40  H          0.25765200       0.35632000       0.72075800
    41  C          0.67850000       0.47120000       0.25725000
    42  C          0.32150000       0.52880000       0.74275000
    43  H          0.60560200       0.37832900       0.26047100
    44  H          0.39439800       0.62167100       0.73952900
    45  C          0.78970000       0.51430000       0.22195000
    46  C          0.21030000       0.48570000       0.77805000
    47  C          0.86610000       0.46040000       0.16096000
    48  C          0.13390000       0.53960000       0.83904000
    49  H          0.68981100       0.45186500       0.14404600
    50  H          0.31018900       0.54813500       0.85595400
    51  H          0.07163600       0.39386300       0.15414200
    52  H          0.92836400       0.60613700       0.84585800
    53  H          0.90705200       0.56106400       0.16041700
    54  H          0.09294800       0.43893600       0.83958300
    55  I          0.70953000       0.26230130       0.06470300
    56  I          0.29047000       0.73769870       0.93529700
    57  Cl         0.74901700       0.61706000       0.07339120
    58  Cl         0.25098300       0.38294000       0.92660880
    59  Cl        -0.00658100       0.82625000       0.01741140
    60  Cl         0.00658100       0.17375000       0.98258860
    61  C          0.88040000       0.40781900       0.02534000
    62  C          0.11960000       0.59218100       0.97466000
    63  C          0.88350000       0.55041900       0.03314000
    64  C          0.11650000       0.44958100       0.96686000
    65  C         -0.00160000       0.64621800       0.00854000
    66  C          0.00160000       0.35378200       0.99146000
    67  N          0.48550000       0.07041900       0.11935000
    68  N          0.51450000       0.92958100       0.88065000
    69  O          0.29270000       0.12920000       0.28846000
    70  O          0.70730000       0.87080000       0.71154000
    71  O          0.10250000       0.92688200       0.30604000
    72  O          0.89750000       0.07311800       0.69396000
    73  C          0.46650000       0.09320000       0.15576000
    74  C          0.53350000       0.90680000       0.84424000
    75  H          0.53949800       0.17671900       0.16427800
    76  H          0.46050200       0.82328100       0.83572200
    77  C          0.37660000       0.94870000       0.10836000
    78  C          0.62340000       0.05130000       0.89164000
    79  H          0.38632500       0.93063200       0.08355900
    80  H          0.61367500       0.06936800       0.91644100
    81  C          0.25270000       0.85170000       0.13106000
    82  C          0.74730000       0.14830000       0.86894000
    83  H          0.17391200       0.77036200       0.12172800
    84  H          0.82608800       0.22963800       0.87827200
    85  C          0.24050000       0.87078200       0.16735000
    86  C          0.75950000       0.12921800       0.83265000
    87  H          0.16353400       0.79936400       0.18298300
    88  H          0.83646600       0.20063600       0.81701700
    89  C          0.33750000      -0.00701900       0.18115000
    90  C          0.66250000       0.00701900       0.81885000
    91  C          0.32150000       0.03420000       0.21826000
    92  C          0.67850000       0.96580000       0.78174000
    93  H          0.39874100       0.12158600       0.22372600
    94  H          0.60125900       0.87841400       0.77627400
    95  C          0.20750000       0.95780000       0.24445000
    96  C          0.79250000       0.04220000       0.75555000
    97  H          0.12207300       0.87143000       0.23968600
    98  H          0.87792700       0.12857000       0.76031400
    99  C          0.20960000       0.00820000       0.28156000
   100  C          0.79040000      -0.00820000       0.71844000
   101  C          0.06580000       0.98060000       0.34266000
   102  C          0.93420000       0.01940000       0.65734000
   103  H          0.28493100       0.96803800       0.35371700
   104  H          0.71506900       0.03196200       0.64628300
   105  H          0.91942000       0.92574700       0.35681100
   106  H          0.08058000       0.07425300       0.64318900
   107  H          0.96643000       0.08578600       0.34167000
   108  H          0.03357000       0.91421400       0.65833000
