data_UGIVIS
_symmetry_space_group_name_H-M    'P1'
_symmetry_Int_Tables_number       1
loop_
_symmetry_equiv_pos_site_id
_symmetry_equiv_pos_as_xyz
1 x,y,z
_cell_length_a                   3.93408
_cell_length_b                   14.5763
_cell_length_c                   16.6013
_cell_angle_alpha                71.173
_cell_angle_beta                 87.333
_cell_angle_gamma                82.843
loop_
_atom_site_label
_atom_site_type_symbol
_atom_site_fract_x
_atom_site_fract_y
_atom_site_fract_z
     1  I          0.08271400       0.73666800       0.46210200
     2  I          0.91728600       0.26333200       0.53789800
     3  F          0.49255000       0.62865880       0.34010110
     4  F          0.50745000       0.37134120       0.65989890
     5  F          0.19276000       0.55046870       0.63200120
     6  F          0.80724000       0.44953130       0.36799880
     7  C          0.33067000       0.59575820       0.48472180
     8  C          0.66933000       0.40424180       0.51527820
     9  C          0.49397000       0.56613810       0.41988180
    10  C          0.50603000       0.43386190       0.58011820
    11  C          0.34328000       0.52708000       0.56551190
    12  C          0.65672000       0.47292000       0.43448810
    13  O          0.66854000       0.53933140       0.04702130
    14  O          0.33146000       0.46066860       0.95297870
    15  O          0.79044000       0.35789140       0.10062130
    16  O          0.20956000       0.64210860       0.89937870
    17  H          0.70190000       0.41361900       0.06820000
    18  H          0.29810000       0.58638100       0.93180000
    19  N          0.72237000       0.93294810       0.42787190
    20  N          0.27763000       0.06705190       0.57212810
    21  C          0.42147000       0.18195190       0.35370190
    22  C          0.57853000       0.81804810       0.64629810
    23  H          0.51582100       0.17898700       0.40624600
    24  H          0.48417900       0.82101300       0.59375400
    25  C          0.27327000       0.27045180       0.29790180
    26  C          0.72673000       0.72954820       0.70209820
    27  H          0.27124300       0.32848500       0.31235700
    28  H          0.72875700       0.67151500       0.68764300
    29  C          0.12887000       0.27512180       0.22180170
    30  C          0.87113000       0.72487820       0.77819830
    31  C          0.42737000       0.09747180       0.33008180
    32  C          0.57263000       0.90252820       0.66991820
    33  C          0.59168000       0.00542000       0.38572000
    34  C          0.40832000      -0.00542000       0.61428000
    35  C          0.83563000       0.54500190       0.10704170
    36  C          0.16437000       0.45499810       0.89295830
    37  C          0.96543000       0.36842180       0.16200170
    38  C          0.03457000       0.63157820       0.83799830
    39  C         -0.00517000       0.66179190       0.18071180
    40  C          0.00517000       0.33820810       0.81928820
    41  H          0.08579900       0.60795400       0.22710000
    42  H          0.91420100       0.39204600       0.77290000
    43  C          0.28078000       0.10092190       0.25404190
    44  C          0.71922000       0.89907810       0.74595810
    45  H          0.28350700       0.04303200       0.23930800
    46  H          0.71649300       0.95696800       0.76069200
    47  N          0.88222000       0.01117190       0.11654190
    48  N          0.11778000       0.98882810       0.88345810
    49  C          0.00008000       0.75602000       0.18286190
    50  C         -0.00008000       0.24398000       0.81713810
    51  H          0.09135900       0.76698400       0.23047400
    52  H          0.90864100       0.23301600       0.76952600
    53  C          0.13067000       0.18958190       0.19991190
    54  C          0.86933000       0.81041810       0.80008810
    55  H          0.02947300       0.19231200       0.14820500
    56  H         -0.02947300       0.80768800       0.85179500
    57  C          0.86753000       0.83475190       0.11337190
    58  C          0.13247000       0.16524810       0.88662810
    59  C          0.73072000       0.81920190       0.04346190
    60  C          0.26928000       0.18079810       0.95653810
    61  H          0.64233600       0.87299400      -0.00329200
    62  H          0.35766400       0.12700600       0.00329200
    63  C          0.72492000       0.72459190       0.04284180
    64  C          0.27508000       0.27540810       0.95715820
    65  H          0.63027200       0.71340300      -0.00429900
    66  H          0.36972800       0.28659700       0.00429900
    67  C          0.85863000       0.64513180       0.11170170
    68  C          0.14137000       0.35486820       0.88829830
    69  C         -0.00327000       0.45930180       0.16890180
    70  C          0.00327000       0.54069820       0.83109820
    71  H          0.12377700       0.46466300       0.21415500
    72  H          0.87622300       0.53533700       0.78584500
    73  C          0.87552000       0.93332000       0.11542000
    74  C          0.12448000       0.06668000       0.88458000
