data_UGORUF
_symmetry_space_group_name_H-M    'P1'
_symmetry_Int_Tables_number       1
loop_
_symmetry_equiv_pos_site_id
_symmetry_equiv_pos_as_xyz
1 x,y,z
_cell_length_a                   8.40236
_cell_length_b                   7.55475
_cell_length_c                   17.316312
_cell_angle_alpha                90.0
_cell_angle_beta                 103.3352
_cell_angle_gamma                90.0
loop_
_atom_site_label
_atom_site_type_symbol
_atom_site_fract_x
_atom_site_fract_y
_atom_site_fract_z
     1  S          0.19667100       0.78546100       0.76155400
     2  S          0.80332900       0.28546100       0.73844600
     3  S          0.80332900       0.21453900       0.23844600
     4  S          0.19667100       0.71453900       0.26155400
     5  N          0.37343000       0.49824000       0.74653160
     6  N          0.62657000      -0.00176000       0.75346840
     7  N          0.62657000       0.50176000       0.25346840
     8  N          0.37343000       0.00176000       0.24653160
     9  N          0.12522000       0.54152000       0.65677100
    10  N          0.87478000       0.04152000       0.84322900
    11  N          0.87478000       0.45848000       0.34322900
    12  N          0.12522000       0.95848000       0.15677100
    13  C          0.23853000       0.59093000       0.71832120
    14  C          0.76147000       0.09093000       0.78167880
    15  C          0.76147000       0.40907000       0.28167880
    16  C          0.23853000       0.90907000       0.21832120
    17  C         -0.00133000       0.66094000       0.64259160
    18  C          0.00133000       0.16094000       0.85740840
    19  C          0.00133000       0.33906000       0.35740840
    20  C         -0.00133000       0.83906000       0.14259160
    21  H          0.90700000       0.64660000       0.60110000
    22  H          0.09300000       0.14660000       0.89890000
    23  H          0.09300000       0.35340000       0.39890000
    24  H          0.90700000       0.85340000       0.10110000
    25  C          0.01524000       0.79815000       0.69161190
    26  C         -0.01524000       0.29815000       0.80838810
    27  C         -0.01524000       0.20185000       0.30838810
    28  C          0.01524000       0.70185000       0.19161190
    29  H          0.93900000       0.88870000       0.68850000
    30  H          0.06100000       0.38870000       0.81150000
    31  H          0.06100000       0.11130000       0.31150000
    32  H          0.93900000       0.61130000       0.18850000
    33  H          0.44640000       0.54240000       0.78151800
    34  H          0.55360000       0.04240000       0.71848200
    35  H          0.55360000       0.45760000       0.21848200
    36  H          0.44640000       0.95760000       0.28151800
    37  H          0.39030000       0.40340000       0.72241700
    38  H          0.60970000       0.90340000       0.77758300
    39  H          0.60970000       0.59660000       0.27758300
    40  H          0.39030000       0.09660000       0.22241700
    41  O          0.12402000       0.25892000       0.56740100
    42  O          0.87598000       0.75892000       0.93259900
    43  O          0.87598000       0.74108000       0.43259900
    44  O          0.12402000       0.24108000       0.06740100
    45  H          0.13280000       0.34150000       0.59880000
    46  H          0.86720000       0.84150000       0.90120000
    47  H          0.86720000       0.65850000       0.40120000
    48  H          0.13280000       0.15850000       0.09880000
    49  O          0.36180180       0.18312000       0.64490900
    50  O          0.63819820       0.68312000       0.85509100
    51  O          0.63819820       0.81688000       0.35509100
    52  O          0.36180180       0.31688000       0.14490900
    53  C          0.24852000       0.15313000       0.58898120
    54  C          0.75148000       0.65313000       0.91101880
    55  C          0.75148000       0.84687000       0.41101880
    56  C          0.24852000       0.34687000       0.08898120
    57  C          0.23923000      -0.00567000       0.53667140
    58  C          0.76077000       0.49433000       0.96332860
    59  C          0.76077000       0.00567000       0.46332860
    60  C          0.23923000       0.50567000       0.03667140
    61  H          0.23720000       0.03410000       0.48320000
    62  H          0.76280000       0.53410000       0.01680000
    63  H          0.76280000       0.96590000       0.51680000
    64  H          0.23720000       0.46590000       0.98320000
    65  H          0.13670000       0.93380000       0.53510000
    66  H          0.86330000       0.43380000       0.96490000
    67  H          0.86330000       0.06620000       0.46490000
    68  H          0.13670000       0.56620000       0.03510000
    69  C          0.37752000       0.86273000       0.56146120
    70  C          0.62248000       0.36273000       0.93853880
    71  C          0.62248000       0.13727000       0.43853880
    72  C          0.37752000       0.63727000       0.06146120
    73  H          0.37720000       0.81830000       0.61400000
    74  H          0.62280000       0.31830000       0.88600000
    75  H          0.62280000       0.18170000       0.38600000
    76  H          0.37720000       0.68170000       0.11400000
    77  H          0.48070000       0.92300000       0.56460000
    78  H          0.51930000       0.42300000       0.93540000
    79  H          0.51930000       0.07700000       0.43540000
    80  H          0.48070000       0.57700000       0.06460000
    81  C          0.36533000       0.70793000       0.50479130
    82  C          0.63467000       0.20793000      -0.00479130
    83  C          0.63467000       0.29207000       0.49520870
    84  C          0.36533000       0.79207000       0.00479130
    85  H          0.26230000       0.64730000       0.50190000
    86  H          0.73770000       0.14730000      -0.00190000
    87  H          0.73770000       0.35270000       0.49810000
    88  H          0.26230000       0.85270000       0.00190000
    89  H          0.36460000       0.75260000       0.45220000
    90  H          0.63540000       0.25260000       0.04780000
    91  H          0.63540000       0.24740000       0.54780000
    92  H          0.36460000       0.74740000       0.95220000
    93  C          0.50353000       0.57613000       0.52868120
    94  C          0.49647000       0.07613000       0.97131880
    95  C          0.49647000       0.42387000       0.47131880
    96  C          0.50353000       0.92387000       0.02868120
    97  H          0.60660000       0.63790000       0.53340000
    98  H          0.39340000       0.13790000       0.96660000
    99  H          0.39340000       0.36210000       0.46660000
   100  H          0.60660000       0.86210000       0.03340000
   101  H          0.50170000       0.52880000       0.58050000
   102  H          0.49830000       0.02880000       0.91950000
   103  H          0.49830000       0.47120000       0.41950000
   104  H          0.50170000       0.97120000       0.08050000
