data_UGOXAR
_symmetry_space_group_name_H-M    'P1'
_symmetry_Int_Tables_number       1
loop_
_symmetry_equiv_pos_site_id
_symmetry_equiv_pos_as_xyz
1 x,y,z
_cell_length_a                   13.88987
_cell_length_b                   14.07677
_cell_length_c                   15.45647
_cell_angle_alpha                72.25101
_cell_angle_beta                 71.21901
_cell_angle_gamma                61.17401
loop_
_atom_site_label
_atom_site_type_symbol
_atom_site_fract_x
_atom_site_fract_y
_atom_site_fract_z
     1  S          0.42280600       0.82269500       0.15364500
     2  S          0.57719400       0.17730500       0.84635500
     3  S          0.57572600       0.82179600       0.63580500
     4  S          0.42427400       0.17820400       0.36419500
     5  S          0.95950400       0.72574600       0.69113600
     6  S          0.04049600       0.27425400       0.30886400
     7  N          0.24098160       0.90364160       0.49302140
     8  N          0.75901840       0.09635840       0.50697860
     9  N          0.57976170       0.63290160       0.62155150
    10  N          0.42023830       0.36709840       0.37844850
    11  H          0.56760000       0.60420000       0.58670000
    12  H          0.43240000       0.39580000       0.41330000
    13  N          0.52836170       0.65968160       0.28147150
    14  N          0.47163830       0.34031840       0.71852850
    15  H          0.53280000       0.63480000       0.33890000
    16  H          0.46720000       0.36520000       0.66110000
    17  N          0.35463170       0.78336160       0.33804150
    18  N          0.64536830       0.21663840       0.66195850
    19  H          0.36800000       0.74220000       0.39070000
    20  H          0.63200000       0.25780000       0.60930000
    21  N          0.14544170       0.57942160       0.59850150
    22  N          0.85455830       0.42057840       0.40149850
    23  H          0.21460000       0.56250000       0.57080000
    24  H          0.78540000       0.43750000       0.42920000
    25  N          0.16311170       0.72253170       0.61585150
    26  N          0.83688830       0.27746830       0.38414850
    27  H          0.23240000       0.68690000       0.59110000
    28  H          0.76760000       0.31310000       0.40890000
    29  N          0.46799160       0.78867160       0.54139140
    30  N          0.53200840       0.21132840       0.45860860
    31  H          0.45300000       0.74380000       0.52660000
    32  H          0.54700000       0.25620000       0.47340000
    33  N          0.85162000       0.22942000       0.94667180
    34  N          0.14838000       0.77058000       0.05332820
    35  N          0.97138000       0.21172000       0.58193180
    36  N          0.02862000       0.78828000       0.41806820
    37  N          0.97182000       0.38872000       0.96278000
    38  N          0.02818000       0.61128000       0.03722000
    39  C          0.63732000       0.55602000       0.69069180
    40  C          0.36268000       0.44398000       0.30930820
    41  C          0.53902000       0.74632000       0.59902170
    42  C          0.46098000       0.25368000       0.40097830
    43  C          0.43422000       0.75280190       0.26276180
    44  C          0.56578000       0.24719810       0.73723820
    45  C          0.04162000       0.34772000       0.59169190
    46  C          0.95838000       0.65228000       0.40830810
    47  C          0.10442000       0.50432000       0.60014190
    48  C          0.89558000       0.49568000       0.39985810
    49  C          0.09322000       0.67452000       0.63370180
    50  C          0.90678000       0.32548000       0.36629820
    51  C          0.23592000       0.95742000       0.39581180
    52  C          0.76408000       0.04258000       0.60418820
    53  H          0.29600000       0.98100000       0.36870000
    54  H          0.70400000       0.01900000       0.63130000
    55  H          0.16500000       0.02230000       0.39370000
    56  H          0.83500000       0.97770000       0.60630000
    57  C          0.41432000       0.90535190       0.50202190
    58  C          0.58568000       0.09464810       0.49797810
    59  H          0.43530000       0.91510000       0.43480000
    60  H          0.56470000       0.08490000       0.56520000
    61  H          0.44090000       0.94610000       0.52180000
    62  H          0.55910000       0.05390000       0.47820000
    63  C          0.61912000       0.60042000       0.21543180
    64  C          0.38088000       0.39958000       0.78456820
    65  C          0.00402000       0.27082000       0.58602000
    66  C          0.99598000       0.72918000       0.41398000
    67  C          0.12032000       0.37342000       0.51895190
    68  C          0.87968000       0.62658000       0.48104810
    69  H          0.15150000       0.33920000       0.46740000
    70  H          0.84850000       0.66080000       0.53260000
    71  C          0.72342000       0.36302000       0.75622000
    72  C          0.27658000       0.63698000       0.24378000
    73  H          0.74410000       0.29000000       0.75480000
    74  H          0.25590000       0.71000000       0.24520000
    75  C          0.28752000       0.95122000       0.53214180
    76  C          0.71248000       0.04878000       0.46785820
    77  H          0.26690000       0.93560000       0.59940000
    78  H          0.73310000       0.06440000       0.40060000
    79  H          0.25520000       0.03060000       0.51230000
    80  H          0.74480000       0.96940000       0.48770000
    81  C          0.74692000       0.38772000       0.82531180
    82  C          0.25308000       0.61228000       0.17468820
    83  C          0.15142000       0.45052000       0.52449190
    84  C          0.84858000       0.54948000       0.47550810
    85  H          0.20510000       0.46690000       0.47650000
    86  H          0.79490000       0.53310000       0.52350000
    87  C          0.24682000       0.88032000       0.33908190
    88  C          0.75318000       0.11968000       0.66091810
    89  H          0.18620000       0.85730000       0.36550000
    90  H          0.81380000       0.14270000       0.63450000
    91  H          0.24050000       0.91890000       0.27590000
    92  H          0.75950000       0.08110000       0.72410000
    93  C          0.80532000       0.30022000       0.89362000
    94  C          0.19468000       0.69978000       0.10638000
    95  C          0.81952000       0.50592000       0.16272000
    96  C          0.18048000       0.49408000       0.83728000
    97  H          0.89210000       0.48160000       0.17000000
    98  H          0.10790000       0.51840000       0.83000000
    99  C          0.60192000       0.57342000       0.14492000
   100  C          0.39808000       0.42658000       0.85508000
   101  H          0.52920000       0.59400000       0.13980000
   102  H          0.47080000       0.40600000       0.86020000
   103  C          0.67012000       0.44512000       0.69042000
   104  C          0.32988000       0.55488000       0.30958000
   105  H          0.65520000       0.42710000       0.64450000
   106  H          0.34480000       0.57290000       0.35550000
   107  C          0.02722000       0.47692000       0.67320190
   108  C          0.97278000       0.52308000       0.32679810
   109  H          0.99590000       0.51090000       0.72490000
   110  H          0.00410000       0.48910000       0.27510000
   111  C          0.72792000       0.56462000       0.22532000
   112  C          0.27208000       0.43538000       0.77468000
   113  H          0.73940000       0.58010000       0.27450000
   114  H          0.26060000       0.41990000       0.72550000
   115  C          0.12772000       0.91572000       0.54789180
   116  C          0.87228000       0.08428000       0.45210820
   117  H          0.08780000       0.91080000       0.50940000
   118  H          0.91220000       0.08920000       0.49060000
   119  H          0.08630000       0.98840000       0.56450000
   120  H          0.91370000       0.01160000       0.43550000
   121  C          0.69262000       0.51602000       0.08202000
   122  C          0.30738000       0.48398000       0.91798000
   123  H          0.68060000       0.49860000       0.03410000
   124  H          0.31940000       0.50140000       0.96590000
   125  C          0.12972000       0.83002000       0.63551190
   126  C          0.87028000       0.16998000       0.36448810
   127  H          0.18160000       0.82430000       0.66830000
   128  H          0.81840000       0.17570000       0.33170000
   129  H          0.05550000       0.85350000       0.67570000
   130  H          0.94450000       0.14650000       0.32430000
   131  C          0.99728000       0.39862000       0.66832000
   132  C          0.00272000       0.60138000       0.33168000
   133  H          0.94630000       0.37970000       0.71760000
   134  H          0.05370000       0.62030000       0.28240000
   135  C          0.80192000       0.48362000       0.08892000
   136  C          0.19808000       0.51638000       0.91108000
   137  C          0.89683000       0.42962000       0.01962000
   138  C          0.10317000       0.57038000       0.98038000
   139  C          0.66373000       0.57982000       0.75802000
   140  C          0.33627000       0.42018000       0.24198000
   141  H          0.64480000       0.65260000       0.75880000
   142  H          0.35520000       0.34740000       0.24120000
   143  C          0.71773000       0.49692000       0.82372000
   144  C          0.28227000       0.50308000       0.17628000
   145  H          0.73500000       0.51450000       0.86830000
   146  H          0.26500000       0.48550000       0.13170000
   147  N          0.74853150       0.92336150       0.05649130
   148  N          0.25146850       0.07663850       0.94350870
   149  C          0.87792000       0.97562000       0.90728830
   150  C          0.12208000       0.02438000       0.09271170
   151  H          0.83440000       0.05350000       0.90970000
   152  H          0.16560000       0.94650000       0.09030000
   153  H          0.84900000       0.95690000       0.86850000
   154  H          0.15100000       0.04310000       0.13150000
   155  C          0.76222000       0.84862000       0.15037170
   156  C          0.23778000       0.15138000       0.84962830
   157  H          0.80070000       0.86860000       0.17920000
   158  H          0.19930000       0.13140000       0.82080000
   159  H          0.81010000       0.77340000       0.14030000
   160  H          0.18990000       0.22660000       0.85970000
   161  C          0.65382000       0.85112000       0.21818170
   162  C          0.34618000       0.14888000       0.78181830
   163  H          0.62520000       0.81130000       0.19960000
   164  H          0.37480000       0.18870000       0.80040000
   165  H          0.59750000       0.92680000       0.21760000
   166  H          0.40250000       0.07320000       0.78240000
   167  C          0.69302000       0.89462000       0.00406180
   168  C          0.30698000       0.10538000      -0.00406180
   169  H          0.62150000       0.89770000       0.04330000
   170  H          0.37850000       0.10230000       0.95670000
   171  H          0.67680000       0.95140000       0.94940000
   172  H          0.32320000       0.04860000       0.05060000
   173  C          0.70512000       0.09052000       0.12305180
   174  C          0.29488000       0.90948000       0.87694820
   175  H          0.78120000       0.08380000       0.09650000
   176  H          0.21880000       0.91620000       0.90350000
   177  H          0.70270000       0.04950000       0.18620000
   178  H          0.29730000       0.95050000       0.81380000
   179  C          0.86688190       0.90862000       0.00402170
   180  C          0.13311810       0.09138000      -0.00402170
   181  H          0.89880000       0.92680000       0.04060000
   182  H          0.10120000       0.07320000       0.95940000
   183  H          0.91200000       0.83130000      -0.00020000
   184  H          0.08800000       0.16870000       0.00020000
   185  C          0.67342000       0.04333180       0.06654180
   186  C          0.32658000       0.95666820       0.93345820
   187  H          0.67240000       0.08810000       0.00480000
   188  H          0.32760000       0.91190000      -0.00480000
   189  H          0.59740000       0.05060000       0.09460000
   190  H          0.40260000       0.94940000       0.90540000
   191  C          0.69172000       0.87072000       0.36115180
   192  C          0.30828000       0.12928000       0.63884820
   193  H          0.76140000       0.87610000       0.33060000
   194  H          0.23860000       0.12390000       0.66940000
   195  H          0.69230000       0.83910000       0.42560000
   196  H          0.30770000       0.16090000       0.57440000
   197  H          0.63060000       0.94290000       0.35590000
   198  H          0.36940000       0.05710000       0.64410000
   199  C          0.75812000       0.78382000       0.97318000
   200  C          0.24188000       0.21618000       0.02682000
   201  H          0.77310000       0.72540000       0.02700000
   202  H          0.22690000       0.27460000       0.97300000
   203  H          0.82950000       0.77910000       0.93300000
   204  H          0.17050000       0.22090000       0.06700000
   205  C          0.67702000       0.79802000       0.31599170
   206  C          0.32298000       0.20198000       0.68400830
   207  H          0.61520000       0.78050000       0.35480000
   208  H          0.38480000       0.21950000       0.64520000
   209  H          0.74460000       0.72940000       0.31280000
   210  H          0.25540000       0.27060000       0.68720000
   211  C          0.00072000       0.95132000       0.86640810
   212  C         -0.00072000       0.04868000       0.13359190
   213  H          0.04070000       0.87700000       0.85320000
   214  H          0.95930000       0.12300000       0.14680000
   215  H          0.03290000       0.95470000       0.91190000
   216  H          0.96710000       0.04530000       0.08810000
   217  C          0.62432000       0.21102000       0.12382000
   218  C          0.37568000       0.78898000       0.87618000
   219  H          0.54860000       0.21710000       0.15080000
   220  H          0.45140000       0.78290000       0.84920000
   221  H          0.62600000       0.25130000       0.06040000
   222  H          0.37400000       0.74870000       0.93960000
   223  C          0.66932000       0.85182000       0.83248000
   224  C          0.33068000       0.14818000       0.16752000
   225  H          0.62090000       0.92410000       0.84730000
   226  H          0.37910000       0.07590000       0.15270000
   227  H          0.63380000       0.83310000       0.80040000
   228  H          0.36620000       0.16690000       0.19960000
   229  H          0.73920000       0.85110000       0.79350000
   230  H          0.26080000       0.14890000       0.20650000
   231  C          0.01732000       0.03142000       0.77788810
   232  C          0.98268000       0.96858000       0.22211190
   233  H          0.98150000       0.03190000       0.73390000
   234  H          0.01850000       0.96810000       0.26610000
   235  H          0.09620000       0.00900000       0.75200000
   236  H          0.90380000      -0.00900000       0.24800000
   237  H          0.98470000       0.10410000       0.79180000
   238  H          0.01530000       0.89590000       0.20820000
   239  C          0.69162000       0.76852000       0.92138000
   240  C          0.30838000       0.23148000       0.07862000
   241  H          0.73250000       0.69500000       0.90640000
   242  H          0.26750000       0.30500000       0.09360000
   243  H          0.62020000       0.77370000       0.96210000
   244  H          0.37980000       0.22630000       0.03790000
   245  C          0.65473000       0.26212000       0.17922000
   246  C          0.34527000       0.73788000       0.82078000
   247  H          0.65360000       0.22200000       0.24190000
   248  H          0.34640000       0.77800000       0.75810000
   249  H          0.60100000       0.33760000       0.17970000
   250  H          0.39900000       0.66240000       0.82030000
   251  H          0.72840000       0.25900000       0.15100000
   252  H          0.27160000       0.74100000       0.84900000
   253  O          0.38325140       0.47063140       0.53546120
   254  O          0.61674860       0.52936860       0.46453880
   255  O          0.39205140       0.63082130       0.51270120
   256  O          0.60794860       0.36917870       0.48729880
   257  C          0.43762000       0.52840190       0.51334160
   258  C          0.56238000       0.47159810       0.48665840
