data_UGUKOY
_symmetry_space_group_name_H-M    'P1'
_symmetry_Int_Tables_number       1
loop_
_symmetry_equiv_pos_site_id
_symmetry_equiv_pos_as_xyz
1 x,y,z
_cell_length_a                   18.2644
_cell_length_b                   7.404917
_cell_length_c                   14.6743
_cell_angle_alpha                90.0
_cell_angle_beta                 90.0
_cell_angle_gamma                90.0
loop_
_atom_site_label
_atom_site_type_symbol
_atom_site_fract_x
_atom_site_fract_y
_atom_site_fract_z
     1  N          0.50000000       0.10652160       0.57961800
     2  N          0.50000000       0.39347840       0.07961800
     3  N          0.50000000       0.60652160       0.92038200
     4  N          0.50000000       0.89347840       0.42038200
     5  N          0.00000000       0.60652160       0.57961800
     6  N         -0.00000000       0.89347840       0.07961800
     7  N         -0.00000000       0.10652160       0.92038200
     8  N          0.00000000       0.39347840       0.42038200
     9  C          0.43811500       0.05352140       0.53963700
    10  C          0.56188500       0.44647860       0.03963700
    11  C          0.56188500       0.55352140       0.96036300
    12  C          0.43811500       0.94647860       0.46036300
    13  C          0.93811500       0.55352140       0.53963700
    14  C          0.06188500       0.94647860       0.03963700
    15  C          0.06188500       0.05352140       0.96036300
    16  C          0.93811500       0.44647860       0.46036300
    17  C          0.56188500       0.94647860       0.46036300
    18  C          0.43811500       0.55352140       0.96036300
    19  C          0.43811500       0.44647860       0.03963700
    20  C          0.56188500       0.05352140       0.53963700
    21  C          0.06188500       0.44647860       0.46036300
    22  C          0.93811500       0.05352140       0.96036300
    23  C          0.93811500       0.94647860       0.03963700
    24  C          0.06188500       0.55352140       0.53963700
    25  C          0.36976500       0.10990140       0.58023700
    26  C          0.63023500       0.39009860       0.08023700
    27  C          0.63023500       0.60990140       0.91976300
    28  C          0.36976500       0.89009860       0.41976300
    29  C          0.86976500       0.60990140       0.58023700
    30  C          0.13023500       0.89009860       0.08023700
    31  C          0.13023500       0.10990140       0.91976300
    32  C          0.86976500       0.39009860       0.41976300
    33  C          0.63023500       0.89009860       0.41976300
    34  C          0.36976500       0.60990140       0.91976300
    35  C          0.36976500       0.39009860       0.08023700
    36  C          0.63023500       0.10990140       0.58023700
    37  C          0.13023500       0.39009860       0.41976300
    38  C          0.86976500       0.10990140       0.91976300
    39  C          0.86976500       0.89009860       0.08023700
    40  C          0.13023500       0.60990140       0.58023700
    41  N          0.31467500       0.15405120       0.60980600
    42  N          0.68532500       0.34594880       0.10980600
    43  N          0.68532500       0.65405120       0.89019400
    44  N          0.31467500       0.84594880       0.39019400
    45  N          0.81467500       0.65405120       0.60980600
    46  N          0.18532500       0.84594880       0.10980600
    47  N          0.18532500       0.15405120       0.89019400
    48  N          0.81467500       0.34594880       0.39019400
    49  N          0.68532500       0.84594880       0.39019400
    50  N          0.31467500       0.65405120       0.89019400
    51  N          0.31467500       0.34594880       0.10980600
    52  N          0.68532500       0.15405120       0.60980600
    53  N          0.18532500       0.34594880       0.39019400
    54  N          0.81467500       0.15405120       0.89019400
    55  N          0.81467500       0.84594880       0.10980600
    56  N          0.18532500       0.65405120       0.60980600
    57  C          0.50000000       0.30167180       0.33253900
    58  C          0.50000000       0.19832820       0.83253900
    59  C          0.50000000       0.80167180       0.16746100
    60  C          0.50000000       0.69832820       0.66746100
    61  C          0.00000000       0.80167180       0.33253900
    62  C         -0.00000000       0.69832820       0.83253900
    63  C         -0.00000000       0.30167180       0.16746100
    64  C          0.00000000       0.19832820       0.66746100
    65  C          0.56734500       0.25129140       0.29249700
    66  C          0.43265500       0.24870860       0.79249700
    67  C          0.43265500       0.75129140       0.20750300
    68  C          0.56734500       0.74870860       0.70750300
    69  C          0.06734500       0.75129140       0.29249700
    70  C          0.93265500       0.74870860       0.79249700
    71  C          0.93265500       0.25129140       0.20750300
    72  C          0.06734500       0.24870860       0.70750300
    73  C          0.43265500       0.74870860       0.70750300
    74  C          0.56734500       0.75129140       0.20750300
    75  C          0.56734500       0.24870860       0.79249700
    76  C          0.43265500       0.25129140       0.29249700
    77  C          0.93265500       0.24870860       0.70750300
    78  C          0.06734500       0.25129140       0.20750300
    79  C          0.06734500       0.74870860       0.79249700
    80  C          0.93265500       0.75129140       0.29249700
    81  H          0.56738000       0.17830000       0.23141400
    82  H          0.43262000       0.32170000       0.73141400
    83  H          0.43262000       0.67830000       0.26858600
    84  H          0.56738000       0.82170000       0.76858600
    85  H          0.06738000       0.67830000       0.23141400
    86  H          0.93262000       0.82170000       0.73141400
    87  H          0.93262000       0.17830000       0.26858600
    88  H          0.06738000       0.32170000       0.76858600
    89  H          0.43262000       0.82170000       0.76858600
    90  H          0.56738000       0.67830000       0.26858600
    91  H          0.56738000       0.32170000       0.73141400
    92  H          0.43262000       0.17830000       0.23141400
    93  H          0.93262000       0.32170000       0.76858600
    94  H          0.06738000       0.17830000       0.26858600
    95  H          0.06738000       0.82170000       0.73141400
    96  H          0.93262000       0.67830000       0.23141400
    97  C          0.63232600       0.30114140       0.33166700
    98  C          0.36767400       0.19885860       0.83166700
    99  C          0.36767400       0.80114140       0.16833300
   100  C          0.63232600       0.69885860       0.66833300
   101  C          0.13232600       0.80114140       0.33166700
   102  C          0.86767400       0.69885860       0.83166700
   103  C          0.86767400       0.30114140       0.16833300
   104  C          0.13232600       0.19885860       0.66833300
   105  C          0.36767400       0.69885860       0.66833300
   106  C          0.63232600       0.80114140       0.16833300
   107  C          0.63232600       0.19885860       0.83166700
   108  C          0.36767400       0.30114140       0.33166700
   109  C          0.86767400       0.19885860       0.66833300
   110  C          0.13232600       0.30114140       0.16833300
   111  C          0.13232600       0.69885860       0.83166700
   112  C          0.86767400       0.80114140       0.33166700
   113  H          0.67907000       0.27220000       0.30251000
   114  H          0.32093000       0.22780000       0.80251000
   115  H          0.32093000       0.77220000       0.19749000
   116  H          0.67907000       0.72780000       0.69749000
   117  H          0.17907000       0.77220000       0.30251000
   118  H          0.82093000       0.72780000       0.80251000
   119  H          0.82093000       0.27220000       0.19749000
   120  H          0.17907000       0.22780000       0.69749000
   121  H          0.32093000       0.72780000       0.69749000
   122  H          0.67907000       0.77220000       0.19749000
   123  H          0.67907000       0.22780000       0.80251000
   124  H          0.32093000       0.27220000       0.30251000
   125  H          0.82093000       0.22780000       0.69749000
   126  H          0.17907000       0.27220000       0.19749000
   127  H          0.17907000       0.72780000       0.80251000
   128  H          0.82093000       0.77220000       0.30251000
   129  C          0.63266500       0.40052140       0.41334700
   130  C          0.36733500       0.09947860       0.91334700
   131  C          0.36733500       0.90052140       0.08665300
   132  C          0.63266500       0.59947860       0.58665300
   133  C          0.13266500       0.90052140       0.41334700
   134  C          0.86733500       0.59947860       0.91334700
   135  C          0.86733500       0.40052140       0.08665300
   136  C          0.13266500       0.09947860       0.58665300
   137  C          0.36733500       0.59947860       0.58665300
   138  C          0.63266500       0.90052140       0.08665300
   139  C          0.63266500       0.09947860       0.91334700
   140  C          0.36733500       0.40052140       0.41334700
   141  C          0.86733500       0.09947860       0.58665300
   142  C          0.13266500       0.40052140       0.08665300
   143  C          0.13266500       0.59947860       0.91334700
   144  C          0.86733500       0.90052140       0.41334700
   145  H          0.68007000       0.43520000       0.43911000
   146  H          0.31993000       0.06480000       0.93911000
   147  H          0.31993000       0.93520000       0.06089000
   148  H          0.68007000       0.56480000       0.56089000
   149  H          0.18007000       0.93520000       0.43911000
   150  H          0.81993000       0.56480000       0.93911000
   151  H          0.81993000       0.43520000       0.06089000
   152  H          0.18007000       0.06480000       0.56089000
   153  H          0.31993000       0.56480000       0.56089000
   154  H          0.68007000       0.93520000       0.06089000
   155  H          0.68007000       0.06480000       0.93911000
   156  H          0.31993000       0.43520000       0.43911000
   157  H          0.81993000       0.06480000       0.56089000
   158  H          0.18007000       0.43520000       0.06089000
   159  H          0.18007000       0.56480000       0.93911000
   160  H          0.81993000       0.93520000       0.43911000
   161  C          0.56818500       0.45039140       0.45642700
   162  C          0.43181500       0.04960860       0.95642700
   163  C          0.43181500       0.95039140       0.04357300
   164  C          0.56818500       0.54960860       0.54357300
   165  C          0.06818500       0.95039140       0.45642700
   166  C          0.93181500       0.54960860       0.95642700
   167  C          0.93181500       0.45039140       0.04357300
   168  C          0.06818500       0.04960860       0.54357300
   169  C          0.43181500       0.54960860       0.54357300
   170  C          0.56818500       0.95039140       0.04357300
   171  C          0.56818500       0.04960860       0.95642700
   172  C          0.43181500       0.45039140       0.45642700
   173  C          0.93181500       0.04960860       0.54357300
   174  C          0.06818500       0.45039140       0.04357300
   175  C          0.06818500       0.54960860       0.95642700
   176  C          0.93181500       0.95039140       0.45642700
   177  C          0.50000000       0.40245180       0.41548900
   178  C          0.50000000       0.09754820       0.91548900
   179  C          0.50000000       0.90245180       0.08451100
   180  C          0.50000000       0.59754820       0.58451100
   181  C          0.00000000       0.90245180       0.41548900
   182  C         -0.00000000       0.59754820       0.91548900
   183  C         -0.00000000       0.40245180       0.08451100
   184  C          0.00000000       0.09754820       0.58451100
