data_UHAHUG
_symmetry_space_group_name_H-M    'P1'
_symmetry_Int_Tables_number       1
loop_
_symmetry_equiv_pos_site_id
_symmetry_equiv_pos_as_xyz
1 x,y,z
_cell_length_a                   4.92101
_cell_length_b                   13.4243
_cell_length_c                   14.0683
_cell_angle_alpha                115.043
_cell_angle_beta                 90.933
_cell_angle_gamma                92.243
loop_
_atom_site_label
_atom_site_type_symbol
_atom_site_fract_x
_atom_site_fract_y
_atom_site_fract_z
     1  Cl         0.36436190       0.40778700       0.07331700
     2  Cl         0.63563810       0.59221300       0.92668300
     3  Cl         0.72272000       0.40472700       0.37743800
     4  Cl         0.27728000       0.59527300       0.62256200
     5  O         -0.02795000       0.75421170       0.34543180
     6  O          0.02795000       0.24578830       0.65456820
     7  H          0.03011000       0.79950000       0.30140000
     8  H         -0.03011000       0.20050000       0.69860000
     9  O          0.49975000       0.69343000       0.19993000
    10  O          0.50025000       0.30657000       0.80007000
    11  O          0.17846000       0.64002000       0.07852000
    12  O          0.82154000       0.35998000       0.92148000
    13  O          0.87488000       0.24182000       0.11773000
    14  O          0.12512000       0.75818000       0.88227000
    15  O          0.21031100       0.26113000       0.21815000
    16  O          0.78968900       0.73887000       0.78185000
    17  O          0.46255000       0.63492000       0.43332000
    18  O          0.53745000       0.36508000       0.56668000
    19  O          0.84076000       0.70482000       0.52192000
    20  O          0.15924000       0.29518000       0.47808000
    21  N          0.28416000       0.64502000       0.15942000
    22  N          0.71584000       0.35498000       0.84058000
    23  N          0.03777000       0.29752000       0.18332000
    24  N          0.96223000       0.70248000       0.81668000
    25  N          0.71095000       0.64592000       0.44202000
    26  N          0.28905000       0.35408000       0.55798000
    27  C         -0.00804000       0.64702000       0.30182000
    28  C          0.00804000       0.35298000       0.69818000
    29  C          0.13836000       0.58672000       0.21272000
    30  C          0.86164000       0.41328000       0.78728000
    31  C          0.16056000       0.47402000       0.17542000
    32  C          0.83944000       0.52598000       0.82458000
    33  C          0.02796000       0.41812000       0.22512000
    34  C         -0.02796000       0.58188000       0.77488000
    35  C          0.87706000       0.47292000       0.31252000
    36  C          0.12294000       0.52708000       0.68748000
    37  C          0.86526000       0.58542000       0.34872000
    38  C          0.13474000       0.41458000       0.65128000
    39  O          0.10636000       0.87042000       0.25582000
    40  O          0.89364000       0.12958000       0.74418000
    41  H          0.21912000       0.91250000       0.29140000
    42  H          0.78088000       0.08750000       0.70860000
    43  H         -0.02289000       0.90540000       0.24340000
    44  H          0.02289000       0.09460000       0.75660000
    45  O          0.73427000       0.96612000       0.18442000
    46  O          0.26573000       0.03388000       0.81558000
    47  O          0.51436000       0.02212000       0.38282000
    48  O          0.48564000       0.97788000       0.61718000
    49  C          0.67361700       0.91586000       0.07444000
    50  C          0.32638300       0.08414000       0.92556000
    51  H          0.76960000       0.84940000       0.04250000
    52  H          0.23040000       0.15060000       0.95750000
    53  H          0.72880000       0.96550000       0.04450000
    54  H          0.27120000       0.03450000       0.95550000
    55  H          0.48140000       0.89870000       0.06190000
    56  H          0.51860000       0.10130000       0.93810000
    57  C          0.60059000       0.06353000       0.23763000
    58  C          0.39941000       0.93647000       0.76237000
    59  H          0.40690000       0.05100000       0.22030000
    60  H          0.59310000       0.94900000       0.77970000
    61  H          0.66990000       0.12010000       0.21740000
    62  H          0.33010000       0.87990000       0.78260000
    63  C          0.65011000       0.09933000       0.35303000
    64  C          0.34989000       0.90067000       0.64697000
    65  H          0.84380000       0.10300000       0.36890000
    66  H          0.15620000       0.89700000       0.63110000
    67  H          0.58200000       0.17190000       0.39180000
    68  H          0.41800000       0.82810000       0.60820000
    69  C          0.56409000       0.04693000       0.49063000
    70  C          0.43591000       0.95307000       0.50937000
    71  H          0.48410000       0.11550000       0.53480000
    72  H          0.51590000       0.88450000       0.46520000
    73  H          0.75810000       0.05420000       0.50670000
    74  H          0.24190000       0.94580000       0.49330000
