data_UHAQUP
_symmetry_space_group_name_H-M    'P1'
_symmetry_Int_Tables_number       1
loop_
_symmetry_equiv_pos_site_id
_symmetry_equiv_pos_as_xyz
1 x,y,z
_cell_length_a                   15.1765
_cell_length_b                   7.8973
_cell_length_c                   14.9745
_cell_angle_alpha                90.0
_cell_angle_beta                 97.9775
_cell_angle_gamma                90.0
loop_
_atom_site_label
_atom_site_type_symbol
_atom_site_fract_x
_atom_site_fract_y
_atom_site_fract_z
     1  C          0.80642160       0.19763000       0.17372170
     2  C          0.19357840       0.69763000       0.32627830
     3  C          0.19357840       0.80237000       0.82627830
     4  C          0.80642160       0.30237000       0.67372170
     5  C          0.86073170       0.06673000       0.15336160
     6  C          0.13926830       0.56673000       0.34663840
     7  C          0.13926830       0.93327000       0.84663840
     8  C          0.86073170       0.43327000       0.65336160
     9  C          0.94696160       0.09613000       0.13548160
    10  C          0.05303840       0.59613000       0.36451840
    11  C          0.05303840       0.90387000       0.86451840
    12  C          0.94696160       0.40387000       0.63548160
    13  C          0.97628180       0.26304000       0.13850180
    14  C          0.02371820       0.76304000       0.36149820
    15  C          0.02371820       0.73696000       0.86149820
    16  C          0.97628180       0.23696000       0.63850180
    17  H          0.03360000       0.28690000       0.12680000
    18  H          0.96640000       0.78690000       0.37320000
    19  H          0.96640000       0.71310000       0.87320000
    20  H          0.03360000       0.21310000       0.62680000
    21  C          0.92220190       0.39334000       0.15848190
    22  C          0.07779810       0.89334000       0.34151810
    23  C          0.07779810       0.60666000       0.84151810
    24  C          0.92220190       0.10666000       0.65848190
    25  H          0.94330000       0.50400000       0.15990000
    26  H          0.05670000       0.00400000       0.34010000
    27  H          0.05670000       0.49600000       0.84010000
    28  H          0.94330000      -0.00400000       0.65990000
    29  C          0.83734190       0.36204000       0.17639180
    30  C          0.16265810       0.86204000       0.32360820
    31  C          0.16265810       0.63796000       0.82360820
    32  C          0.83734190       0.13796000       0.67639180
    33  H          0.80120000       0.45060000       0.19020000
    34  H          0.19880000       0.95060000       0.30980000
    35  H          0.19880000       0.54940000       0.80980000
    36  H          0.80120000       0.04940000       0.69020000
    37  C          0.00579180       0.95326000       0.11407170
    38  C         -0.00579180       0.45326000       0.38592830
    39  C         -0.00579180       0.04674000       0.88592830
    40  C          0.00579180       0.54674000       0.61407170
    41  Cl         0.69919500       0.15611110       0.19375600
    42  Cl         0.30080500       0.65611110       0.30624400
    43  Cl         0.30080500       0.84388890       0.80624400
    44  Cl         0.69919500       0.34388890       0.69375600
    45  N          0.82283150       0.89427000       0.15052000
    46  N          0.17716850       0.39427000       0.34948000
    47  N          0.17716850       0.10573000       0.84948000
    48  N          0.82283150       0.60573000       0.65052000
    49  O          0.83090150       0.81387000       0.22032170
    50  O          0.16909850       0.31387000       0.27967830
    51  O          0.16909850       0.18613000       0.77967830
    52  O          0.83090150       0.68613000       0.72032170
    53  O          0.78298160       0.84747000       0.07863180
    54  O          0.21701840       0.34747000       0.42136820
    55  O          0.21701840       0.15253000       0.92136820
    56  O          0.78298160       0.65253000       0.57863180
    57  O          0.98281130       0.80767000       0.11281150
    58  O          0.01718870       0.30767000       0.38718850
    59  O          0.01718870       0.19233000       0.88718850
    60  O          0.98281130       0.69233000       0.61281150
    61  O          0.08374120       0.00613000       0.09793150
    62  O          0.91625880       0.50613000       0.40206850
    63  O          0.91625880      -0.00613000       0.90206850
    64  O          0.08374120       0.49387000       0.59793150
    65  H          0.12131900       0.91270000       0.08720000
    66  H          0.87868100       0.41270000       0.41280000
    67  H          0.87868100       0.08730000       0.91280000
    68  H          0.12131900       0.58730000       0.58720000
    69  C          0.35625180       0.22503000       0.18448180
    70  C          0.64374820       0.72503000       0.31551820
    71  C          0.64374820       0.77497000       0.81551820
    72  C          0.35625180       0.27497000       0.68448180
    73  H          0.31320000       0.30420000       0.19400000
    74  H          0.68680000       0.80420000       0.30600000
    75  H          0.68680000       0.69580000       0.80600000
    76  H          0.31320000       0.19580000       0.69400000
    77  C          0.38154190       0.10324000       0.24882000
    78  C          0.61845810       0.60324000       0.25118000
    79  C          0.61845810       0.89676000       0.75118000
    80  C          0.38154190       0.39676000       0.74882000
    81  H          0.35560000       0.10010000       0.30150000
    82  H          0.64440000       0.60010000       0.19850000
    83  H          0.64440000       0.89990000       0.69850000
    84  H          0.35560000       0.39990000       0.80150000
    85  C          0.44535190      -0.01414000       0.23472000
    86  C          0.55464810       0.48586000       0.26528000
    87  C          0.55464810       0.01414000       0.76528000
    88  C          0.44535190       0.51414000       0.73472000
    89  H          0.46230000       0.90310000       0.27790000
    90  H          0.53770000       0.40310000       0.22210000
    91  H          0.53770000       0.09690000       0.72210000
    92  H          0.46230000       0.59690000       0.77790000
    93  C          0.48400190      -0.00944000       0.15722000
    94  C          0.51599810       0.49056000       0.34278000
    95  C          0.51599810       0.00944000       0.84278000
    96  C          0.48400190       0.50944000       0.65722000
    97  H          0.52700000       0.91100000       0.14800000
    98  H          0.47300000       0.41100000       0.35200000
    99  H          0.47300000       0.08900000       0.85200000
   100  H          0.52700000       0.58900000       0.64800000
   101  C          0.45968170       0.11133000       0.09382000
   102  C          0.54031830       0.61133000       0.40618000
   103  C          0.54031830       0.88867000       0.90618000
   104  C          0.45968170       0.38867000       0.59382000
   105  H          0.48690000       0.11430000       0.04190000
   106  H          0.51310000       0.61430000       0.45810000
   107  H          0.51310000       0.88570000       0.95810000
   108  H          0.48690000       0.38570000       0.54190000
   109  C          0.39459150       0.23063000       0.10544160
   110  C          0.60540850       0.73063000       0.39455840
   111  C          0.60540850       0.76937000       0.89455840
   112  C          0.39459150       0.26937000       0.60544160
   113  C          0.37452170       0.36323000       0.03597170
   114  C          0.62547830       0.86323000       0.46402830
   115  C          0.62547830       0.63677000       0.96402830
   116  C          0.37452170       0.13677000       0.53597170
   117  C          0.30724160       0.49833000       0.04811160
   118  C          0.69275840      -0.00167000       0.45188840
   119  C          0.69275840       0.50167000       0.95188840
   120  C          0.30724160       0.00167000       0.54811160
   121  C          0.22017170       0.46364000       0.06049180
   122  C          0.77982830       0.96364000       0.43950820
   123  C          0.77982830       0.53636000       0.93950820
   124  C          0.22017170       0.03636000       0.56049180
   125  H          0.20000000       0.35260000       0.06220000
   126  H          0.80000000       0.85260000       0.43780000
   127  H          0.80000000       0.64740000       0.93780000
   128  H          0.20000000       0.14740000       0.56220000
   129  C          0.16399180       0.59864000       0.07032000
   130  C          0.83600820       0.09864000       0.42968000
   131  C          0.83600820       0.40136000       0.92968000
   132  C          0.16399180       0.90136000       0.57032000
   133  H          0.10520000       0.57580000       0.07720000
   134  H          0.89480000       0.07580000       0.42280000
   135  H          0.89480000       0.42420000       0.92280000
   136  H          0.10520000       0.92420000       0.57720000
   137  C          0.27391190       0.79134000       0.05789190
   138  C          0.72608810       0.29134000       0.44210810
   139  C          0.72608810       0.20866000       0.94210810
   140  C          0.27391190       0.70866000       0.55789190
   141  H          0.29290000       0.90320000       0.05740000
   142  H          0.70710000       0.40320000       0.44260000
   143  H          0.70710000       0.09680000       0.94260000
   144  H          0.29290000       0.59680000       0.55740000
   145  C          0.33314170       0.66463000       0.04600180
   146  C          0.66685830       0.16463000       0.45399820
   147  C          0.66685830       0.33537000       0.95399820
   148  C          0.33314170       0.83537000       0.54600180
   149  H          0.39080000       0.69150000       0.03650000
   150  H          0.60920000       0.19150000       0.46350000
   151  H          0.60920000       0.30850000       0.96350000
   152  H          0.39080000       0.80850000       0.53650000
   153  N          0.19018140       0.75953000       0.07017150
   154  N          0.80981860       0.25953000       0.42982850
   155  N          0.80981860       0.24047000       0.92982850
   156  N          0.19018140       0.74047000       0.57017150
   157  O          0.41437130       0.37223000       0.97131880
   158  O          0.58562870       0.87223000       0.52868120
   159  O          0.58562870       0.62777000       0.02868120
   160  O          0.41437130       0.12777000       0.47131880
