data_UHAYEL
_symmetry_space_group_name_H-M    'P1'
_symmetry_Int_Tables_number       1
loop_
_symmetry_equiv_pos_site_id
_symmetry_equiv_pos_as_xyz
1 x,y,z
_cell_length_a                   10.62214
_cell_length_b                   11.32263
_cell_length_c                   11.59955
_cell_angle_alpha                90.0
_cell_angle_beta                 107.8614
_cell_angle_gamma                90.0
loop_
_atom_site_label
_atom_site_type_symbol
_atom_site_fract_x
_atom_site_fract_y
_atom_site_fract_z
     1  O          0.84487150       0.20885130       0.05537140
     2  O          0.15512850       0.70885130       0.44462860
     3  O          0.15512850       0.79114870       0.94462860
     4  O          0.84487150       0.29114870       0.55537140
     5  H          0.75730000       0.23620000       0.05920000
     6  H          0.24270000       0.73620000       0.44080000
     7  H          0.24270000       0.76380000       0.94080000
     8  H          0.75730000       0.26380000       0.55920000
     9  O          0.71097130       0.45994120       0.24905130
    10  O          0.28902870       0.95994120       0.25094870
    11  O          0.28902870       0.54005880       0.75094870
    12  O          0.71097130       0.04005880       0.74905130
    13  H          0.60961600       0.47620000       0.21420000
    14  H          0.39038400       0.97620000       0.28580000
    15  H          0.39038400       0.52380000       0.78580000
    16  H          0.60961600       0.02380000       0.71420000
    17  O          0.66190130       0.31665120       0.11053140
    18  O          0.33809870       0.81665120       0.38946860
    19  O          0.33809870       0.68334880       0.88946860
    20  O          0.66190130       0.18334880       0.61053140
    21  C          0.97907190       0.39639160       0.32190170
    22  C          0.02092810       0.89639160       0.17809830
    23  C          0.02092810       0.60360840       0.67809830
    24  C          0.97907190       0.10360840       0.82190170
    25  H          0.94964900       0.45040100       0.37083200
    26  H          0.05035100       0.95040100       0.12916800
    27  H          0.05035100       0.54959900       0.62916800
    28  H          0.94964900       0.04959900       0.87083200
    29  C          0.88721190       0.34446160       0.22493180
    30  C          0.11278810       0.84446160       0.27506820
    31  C          0.11278810       0.65553840       0.77506820
    32  C          0.88721190       0.15553840       0.72493180
    33  C          0.93187190       0.26102160       0.15275180
    34  C          0.06812810       0.76102160       0.34724820
    35  C          0.06812810       0.73897840       0.84724820
    36  C          0.93187190       0.23897840       0.65275180
    37  C          0.06372000       0.23528170       0.17996190
    38  C          0.93628000       0.73528170       0.32003810
    39  C          0.93628000       0.76471830       0.82003810
    40  C          0.06372000       0.26471830       0.67996190
    41  H          0.09183200       0.17939600       0.13191300
    42  H          0.90816800       0.67939600       0.36808700
    43  H          0.90816800       0.82060400       0.86808700
    44  H          0.09183200       0.32060400       0.63191300
    45  C          0.15842190       0.29001160       0.27779180
    46  C          0.84157810       0.79001160       0.22220820
    47  C          0.84157810       0.70998840       0.72220820
    48  C          0.15842190       0.20998840       0.77779180
    49  C          0.29612000       0.26831180       0.30442000
    50  C          0.70388000       0.76831180       0.19558000
    51  C          0.70388000       0.73168820       0.69558000
    52  C          0.29612000       0.23168820       0.80442000
    53  H          0.32615700       0.21305300       0.25710200
    54  H          0.67384300       0.71305300       0.24289800
    55  H          0.67384300       0.78694700       0.74289800
    56  H          0.32615700       0.28694700       0.75710200
    57  C          0.38562000       0.32582000       0.39712000
    58  C          0.61438000       0.82582000       0.10288000
    59  C          0.61438000       0.67418000       0.60288000
    60  C          0.38562000       0.17418000       0.89712000
    61  H          0.47739900       0.31148600       0.41270700
    62  H          0.52260100       0.81148600       0.08729300
    63  H          0.52260100       0.68851400       0.58729300
    64  H          0.47739900       0.18851400       0.91270700
    65  C          0.74342190       0.37552170       0.19254180
    66  C          0.25657810       0.87552170       0.30745820
    67  C          0.25657810       0.62447830       0.80745820
    68  C          0.74342190       0.12447830       0.69254180
    69  C          0.34282000       0.40672000       0.47032000
    70  C          0.65718000       0.90672000       0.02968000
    71  C          0.65718000       0.59328000       0.52968000
    72  C          0.34282000       0.09328000       0.97032000
    73  H          0.40602100       0.44598600       0.53503800
    74  H          0.59397900       0.94598600       0.96496200
    75  H          0.59397900       0.55401400       0.46496200
    76  H          0.40602100       0.05401400       0.03503800
    77  C          0.21172000       0.42848180       0.44846180
    78  C          0.78828000       0.92848180       0.05153820
    79  C          0.78828000       0.57151820       0.55153820
    80  C          0.21172000       0.07151820       0.94846180
    81  H          0.18407400       0.48206800       0.49895600
    82  H          0.81592600       0.98206800       0.00104400
    83  H          0.81592600       0.51793200       0.50104400
    84  H          0.18407400       0.01793200      -0.00104400
    85  C          0.11537190       0.37222160       0.35116180
    86  C          0.88462810       0.87222160       0.14883820
    87  C          0.88462810       0.62777840       0.64883820
    88  C          0.11537190       0.12777840       0.85116180
    89  N          0.46059150       0.49861140       0.16479140
    90  N          0.53940850      -0.00138860       0.33520860
    91  N          0.53940850       0.50138860       0.83520860
    92  N          0.46059150       0.00138860       0.66479140
    93  C          0.18721180       0.52043160       0.08784170
    94  C          0.81278820       0.02043160       0.41215830
    95  C          0.81278820       0.47956840       0.91215830
    96  C          0.18721180       0.97956840       0.58784170
    97  C          0.25096190       0.43875170       0.03537180
    98  C          0.74903810       0.93875170       0.46462820
    99  C          0.74903810       0.56124830       0.96462820
   100  C          0.25096190       0.06124830       0.53537180
   101  H          0.20076500       0.38929000       0.97164700
   102  H          0.79923500       0.88929000       0.52835300
   103  H          0.79923500       0.61071000       0.02835300
   104  H          0.20076500       0.11071000       0.47164700
   105  C          0.38658190       0.42960170       0.07574180
   106  C          0.61341810       0.92960170       0.42425820
   107  C          0.61341810       0.57039830       0.92425820
   108  C          0.38658190       0.07039830       0.57574180
   109  H          0.42884400       0.37302100       0.03964600
   110  H          0.57115600       0.87302100       0.46035400
   111  H          0.57115600       0.62697900       0.96035400
   112  H          0.42884400       0.12697900       0.53964600
   113  C          0.40152000       0.57954170       0.21494190
   114  C          0.59848000       0.07954170       0.28505810
   115  C          0.59848000       0.42045830       0.78505810
   116  C          0.40152000       0.92045830       0.71494190
   117  H          0.45429400       0.62964000       0.27667200
   118  H          0.54570600       0.12964000       0.22332800
   119  H          0.54570600       0.37036000       0.72332800
   120  H          0.45429400       0.87036000       0.77667200
   121  C          0.26705190       0.59158170       0.17924180
   122  C          0.73294810       0.09158170       0.32075820
   123  C          0.73294810       0.40841830       0.82075820
   124  C          0.26705190       0.90841830       0.67924180
   125  H          0.22767700       0.64897000       0.21708300
   126  H          0.77232300       0.14897000       0.28291700
   127  H          0.77232300       0.35103000       0.78291700
   128  H          0.22767700       0.85103000       0.71708300
   129  C          0.04030170       0.53566160       0.05370170
   130  C          0.95969830       0.03566160       0.44629830
   131  C          0.95969830       0.46433840       0.94629830
   132  C          0.04030170       0.96433840       0.55370170
   133  H          0.01956700       0.62026800       0.03620800
   134  H          0.98043300       0.12026800       0.46379200
   135  H          0.98043300       0.37973200       0.96379200
   136  H          0.01956700       0.87973200       0.53620800
   137  H          0.01158700       0.51444500       0.12456000
   138  H         -0.01158700       0.01444500       0.37544000
   139  H         -0.01158700       0.48555500       0.87544000
   140  H          0.01158700       0.98555500       0.62456000
