data_UHEBUI
_symmetry_space_group_name_H-M    'P1'
_symmetry_Int_Tables_number       1
loop_
_symmetry_equiv_pos_site_id
_symmetry_equiv_pos_as_xyz
1 x,y,z
_cell_length_a                   6.21292
_cell_length_b                   7.01412
_cell_length_c                   17.43724
_cell_angle_alpha                92.4022
_cell_angle_beta                 100.0282
_cell_angle_gamma                106.8823
loop_
_atom_site_label
_atom_site_type_symbol
_atom_site_fract_x
_atom_site_fract_y
_atom_site_fract_z
     1  O          0.32197160       0.62396130       0.04729600
     2  O          0.67802840       0.37603870       0.95270400
     3  H          0.21730000       0.62820000       0.07681000
     4  H          0.78270000       0.37180000       0.92319000
     5  C          0.40722000       0.81136190       0.02456700
     6  C          0.59278000       0.18863810       0.97543300
     7  C          0.30832000       0.96243190       0.03362700
     8  C          0.69168000       0.03756810       0.96637300
     9  H          0.17602300       0.93731600       0.05654500
    10  H          0.82397700       0.06268400       0.94345500
    11  C          0.59952000       0.85012000       0.99042200
    12  C          0.40048000       0.14988000       0.00957800
    13  H          0.66830600       0.74772700       0.98350800
    14  H          0.33169400       0.25227300       0.01649200
    15  O          0.38484160       0.72822180       0.38101600
    16  O          0.61515840       0.27177820       0.61898400
    17  N          0.04376180       0.61568160       0.15425600
    18  N          0.95623820       0.38431840       0.84574400
    19  N          0.06872000       0.64762000       0.43247700
    20  N          0.93128000       0.35238000       0.56752300
    21  H          0.16230000       0.67230000       0.48181100
    22  H          0.83770000       0.32770000       0.51818900
    23  H          0.91670000       0.61130000       0.42881000
    24  H          0.08330000       0.38870000       0.57119000
    25  C          0.03282000       0.63148180       0.29128700
    26  C         -0.03282000       0.36851820       0.70871300
    27  C          0.14792000       0.65239190       0.22930800
    28  C          0.85208000       0.34760810       0.77069200
    29  H          0.31077500       0.69549200       0.24101000
    30  H          0.68922500       0.30450800       0.75899000
    31  C          0.81408000       0.55637190       0.13852800
    32  C          0.18592000       0.44362810       0.86147200
    33  H          0.73680700       0.52936600       0.08537900
    34  H          0.26319300       0.47063400       0.91462100
    35  C          0.68488000       0.53292000       0.19637800
    36  C          0.31512000       0.46708000       0.80362200
    37  H          0.52222900       0.49140800       0.18296200
    38  H          0.47777100       0.50859200       0.81703800
    39  C          0.79458000       0.57022000       0.27380800
    40  C          0.20542000       0.42978000       0.72619200
    41  H          0.70886200       0.55432000       0.31444900
    42  H          0.29113800       0.44568000       0.68555100
    43  C          0.17372000       0.67253180       0.37220700
    44  C          0.82628000       0.32746820       0.62779300
    45  O          0.42125150       0.69219150       0.57659600
    46  O          0.57874850       0.30780850       0.42340400
    47  O          0.69203170       0.81088170       0.50719600
    48  O          0.30796830       0.18911830       0.49280400
    49  H          0.57130000       0.77930000       0.46241200
    50  H          0.42870000       0.22070000       0.53758800
    51  C          0.81012000       0.82619180       0.64361800
    52  C          0.18988000       0.17380820       0.35638200
    53  C          0.03902000       0.89800190       0.63664800
    54  C          0.96098000       0.10199810       0.36335200
    55  H          0.07759200       0.91364800       0.58641400
    56  H          0.92240800       0.08635200       0.41358600
    57  C          0.21002000       0.94652000       0.70305900
    58  C          0.78998000       0.05348000       0.29694100
    59  H          0.36611300      -0.00588300       0.69816200
    60  H          0.63388700       0.00588300       0.30183800
    61  C          0.15573000       0.92622000       0.77645900
    62  C          0.84427000       0.07378000       0.22354100
    63  H          0.27406900       0.95974000       0.82177100
    64  H          0.72593100       0.04026000       0.17822900
    65  C          0.92803000       0.85672000       0.78381800
    66  C          0.07197000       0.14328000       0.21618200
    67  H          0.88999400       0.84299500       0.83417900
    68  H          0.11000600       0.15700500       0.16582100
    69  C          0.75632000       0.80752190       0.71753800
    70  C          0.24368000       0.19247810       0.28246200
    71  H          0.60034000       0.76056900       0.72265200
    72  H          0.39966000       0.23943100       0.27734800
    73  C          0.62162000       0.76945190       0.57336800
    74  C          0.37838000       0.23054810       0.42663200
