data_UHEGIA
_symmetry_space_group_name_H-M    'P1'
_symmetry_Int_Tables_number       1
loop_
_symmetry_equiv_pos_site_id
_symmetry_equiv_pos_as_xyz
1 x,y,z
_cell_length_a                   9.52185
_cell_length_b                   6.88473
_cell_length_c                   10.72856
_cell_angle_alpha                90.0
_cell_angle_beta                 112.7746
_cell_angle_gamma                90.0
loop_
_atom_site_label
_atom_site_type_symbol
_atom_site_fract_x
_atom_site_fract_y
_atom_site_fract_z
     1  Br         0.82790400       0.25000000       0.81599400
     2  Br         0.17209600       0.75000000       0.18400600
     3  C          0.18024000       0.25000000       0.22684000
     4  C          0.81976000       0.75000000       0.77316000
     5  C          0.67394000       0.25000000       0.64034000
     6  C          0.32606000       0.75000000       0.35966000
     7  N          0.33234000       0.25000000       0.25543000
     8  N          0.66766000       0.75000000       0.74457000
     9  H          0.35944800       0.25000000       0.18767500
    10  H          0.64055200       0.75000000       0.81232500
    11  C          0.52454000       0.25000000       0.62624000
    12  C          0.47546000       0.75000000       0.37376000
    13  H          0.49881200       0.25000000       0.70150100
    14  H          0.50118800       0.75000000       0.29849900
    15  O          0.08293000       0.25000000       0.11423000
    16  O          0.91707000       0.75000000       0.88577000
    17  C          0.60034000       0.25000000       0.40074000
    18  C          0.39966000       0.75000000       0.59926000
    19  H          0.62670000       0.25000000       0.32585400
    20  H          0.37330000       0.75000000       0.67414600
    21  N          0.19714000       0.25000000       0.56644000
    22  N          0.80286000       0.75000000       0.43356000
    23  C          0.44754000       0.25000000       0.38274000
    24  C          0.55246000       0.75000000       0.61726000
    25  N          0.05194000       0.25000000       0.49894000
    26  N          0.94806000       0.75000000       0.50106000
    27  N          0.25843000       0.25000000       0.47123000
    28  N          0.74157000       0.75000000       0.52877000
    29  C          0.71144000       0.25000000       0.52774000
    30  C          0.28856000       0.75000000       0.47226000
    31  H          0.81325500       0.25000000       0.53885700
    32  H          0.18674500       0.75000000       0.46114300
    33  C          0.41374000       0.25000000       0.49743000
    34  C          0.58626000       0.75000000       0.50257000
    35  N          0.01514000       0.25000000       0.36364000
    36  N         -0.01514000       0.75000000       0.63636000
    37  C          0.14644000       0.25000000       0.34954000
    38  C          0.85356000       0.75000000       0.65046000
    39  S          0.36528120       0.25000000       0.91528100
    40  S          0.63471880       0.75000000       0.08471900
    41  O          0.45253000       0.25000000       0.06613000
    42  O          0.54747000       0.75000000       0.93387000
    43  C          0.23544000       0.05705000       0.88153000
    44  C          0.76456000       0.55705000       0.11847000
    45  C          0.76456000       0.94295000       0.11847000
    46  C          0.23544000       0.44295000       0.88153000
    47  H          0.28987500       0.93603400       0.90000900
    48  H          0.71012500       0.43603400       0.09999100
    49  H          0.71012500       0.06396600       0.09999100
    50  H          0.28987500       0.56396600       0.90000900
    51  H          0.16715500       0.06080000       0.78816100
    52  H          0.83284500       0.56080000       0.21183900
    53  H          0.83284500       0.93920000       0.21183900
    54  H          0.16715500       0.43920000       0.78816100
    55  H          0.17825500       0.06845800       0.93773200
    56  H          0.82174500       0.56845800       0.06226800
    57  H          0.82174500       0.93154200       0.06226800
    58  H          0.17825500       0.43154200       0.93773200
