data_UHEJIE
_symmetry_space_group_name_H-M    'P1'
_symmetry_Int_Tables_number       1
loop_
_symmetry_equiv_pos_site_id
_symmetry_equiv_pos_as_xyz
1 x,y,z
_cell_length_a                   9.73426
_cell_length_b                   10.44655
_cell_length_c                   10.85577
_cell_angle_alpha                77.2805
_cell_angle_beta                 86.2385
_cell_angle_gamma                72.4435
loop_
_atom_site_label
_atom_site_type_symbol
_atom_site_fract_x
_atom_site_fract_y
_atom_site_fract_z
     1  O          0.80998130       0.52216120       0.11897110
     2  O          0.19001870       0.47783880       0.88102890
     3  H          0.71920000       0.52720000       0.15420000
     4  H          0.28080000       0.47280000       0.84580000
     5  O          0.65069130       0.29631130       0.42942120
     6  O          0.34930870       0.70368870       0.57057880
     7  H          0.54601700       0.33220000       0.44020000
     8  H          0.45398300       0.66780000       0.55980000
     9  O          0.60537130       0.47182130       0.26391120
    10  O          0.39462870       0.52817870       0.73608880
    11  C          0.09334170       0.18935160       0.35579150
    12  C          0.90665830       0.81064840       0.64420850
    13  C          0.94372180       0.22966160       0.38179150
    14  C          0.05627820       0.77033840       0.61820850
    15  H          0.90846200       0.18079600       0.45509000
    16  H          0.09153800       0.81920400       0.54491000
    17  C          0.84795170       0.33691160       0.30472150
    18  C          0.15204830       0.66308840       0.69527850
    19  C          0.90051170       0.41422160       0.19733150
    20  C          0.09948830       0.58577840       0.80266850
    21  C          0.04537180       0.37874170       0.17052150
    22  C          0.95462820       0.62125830       0.82947850
    23  H          0.07975500       0.43137000       0.09925500
    24  H          0.92024500       0.56863000       0.90074500
    25  C          0.14382170       0.26597170       0.24655160
    26  C          0.85617830       0.73402830       0.75344840
    27  C          0.29351180       0.22442000       0.21782190
    28  C          0.70648820       0.77558000       0.78217810
    29  H          0.32953500       0.27390900       0.14542600
    30  H          0.67046500       0.72609100       0.85457400
    31  C          0.38603190       0.11372000       0.29362000
    32  C          0.61396810       0.88628000       0.70638000
    33  H          0.48556700       0.08675000       0.27301800
    34  H          0.51443300       0.91325000       0.72698200
    35  C          0.33492000       0.03932190       0.40182000
    36  C          0.66508000       0.96067810       0.59818000
    37  H          0.40014500       0.96303900       0.45392600
    38  H          0.59985500       0.03696100       0.54607400
    39  C          0.19235190       0.07627180       0.43188180
    40  C          0.80764810       0.92372820       0.56811820
    41  H          0.15908300       0.02535000       0.50502600
    42  H          0.84091700       0.97465000       0.49497400
    43  C          0.69003180       0.37345170       0.33226160
    44  C          0.30996820       0.62654830       0.66773840
    45  N          0.47957150       0.74841160       0.05181150
    46  N          0.52042850       0.25158840       0.94818850
    47  N          0.72318860       0.93856140       0.17882130
    48  N          0.27681140       0.06143860       0.82117870
    49  C          0.18125150       0.82019150       0.10570140
    50  C          0.81874850       0.17980850       0.89429860
    51  C          0.27231190       0.87892000       0.14932000
    52  C          0.72768810       0.12108000       0.85068000
    53  H          0.23537400       0.94578200       0.19937000
    54  H          0.76462600       0.05421800       0.80063000
    55  C          0.95902830       0.96025180       0.20049170
    56  C          0.04097170       0.03974820       0.79950830
    57  H          0.01588300       0.00443100       0.23367300
    58  H          0.98411700      -0.00443100       0.76632700
    59  C          0.41762000       0.84062000       0.12022000
    60  C          0.58238000       0.15938000       0.87978000
    61  H          0.47704200       0.88362100       0.15152600
    62  H          0.52295800       0.11637900       0.84847400
    63  C          0.81160820      -0.00507820       0.22113170
    64  C          0.18839180       0.00507820       0.77886830
    65  H          0.77082800       0.06354400       0.26869500
    66  H          0.22917200       0.93645600       0.73130500
    67  C          0.39173190       0.69282000       0.00992000
    68  C          0.60826810       0.30718000      -0.00992000
    69  H          0.43194900       0.62664200       0.95976900
    70  H          0.56805100       0.37335800       0.04023100
    71  C          0.78574820       0.84369190       0.11137190
    72  C          0.21425180       0.15630810       0.88862810
    73  H          0.72615700       0.80199500       0.07840900
    74  H          0.27384300       0.19800500       0.92159100
    75  C          0.24487190       0.72422000       0.03392000
    76  C          0.75512810       0.27578000       0.96608000
    77  H          0.18824300       0.67965700       0.00086300
    78  H          0.81175700       0.32034300      -0.00086300
    79  C          0.93181830       0.80248180       0.08660170
    80  C          0.06818170       0.19751820       0.91339830
    81  H          0.96957200       0.73370000       0.03865500
    82  H          0.03042800       0.26630000       0.96134500
    83  C          0.02341150       0.86083150       0.13123140
    84  C          0.97658850       0.13916850       0.86876860
    85  N          0.37846150       0.38363140       0.46375140
    86  N          0.62153850       0.61636860       0.53624860
    87  C          0.07963160       0.47558150       0.49222150
    88  C          0.92036840       0.52441850       0.50777850
    89  C          0.15035190       0.53952000       0.39395170
    90  C          0.84964810       0.46048000       0.60604830
    91  H          0.09691700       0.61660600       0.33409800
    92  H          0.90308300       0.38339400       0.66590200
    93  C          0.29789190       0.49142000       0.38299180
    94  C          0.70210810       0.50858000       0.61700820
    95  H          0.34403500       0.53695100       0.31509200
    96  H          0.65596500       0.46304900       0.68490800
    97  C          0.31182000       0.32147190       0.55847190
    98  C          0.68818000       0.67852810       0.44152810
    99  H          0.36800400       0.24467200       0.61695500
   100  H          0.63199600       0.75532800       0.38304500
   101  C          0.16435190       0.36401180       0.57523180
   102  C          0.83564810       0.63598820       0.42476820
   103  H          0.12116300       0.31641800       0.64398900
   104  H          0.87883700       0.68358200       0.35601100
