data_UHEMOJ
_symmetry_space_group_name_H-M    'P1'
_symmetry_Int_Tables_number       1
loop_
_symmetry_equiv_pos_site_id
_symmetry_equiv_pos_as_xyz
1 x,y,z
_cell_length_a                   9.15592
_cell_length_b                   10.58623
_cell_length_c                   11.60184
_cell_angle_alpha                89.27001
_cell_angle_beta                 84.7262
_cell_angle_gamma                65.2252
loop_
_atom_site_label
_atom_site_type_symbol
_atom_site_fract_x
_atom_site_fract_y
_atom_site_fract_z
     1  O          0.33370140       0.76937120       0.29339900
     2  O          0.66629860       0.23062880       0.70660100
     3  C          0.18059190       0.43062170       0.40412140
     4  C          0.81940810       0.56937830       0.59587860
     5  N          0.05544160       0.51965140       0.48727120
     6  N          0.94455840       0.48034860       0.51272880
     7  C          0.19336190       0.30210170       0.36630140
     8  C          0.80663810       0.69789830       0.63369860
     9  H          0.11700000       0.26820000       0.39670000
    10  H          0.88300000       0.73180000       0.60330000
    11  C          0.57932000       0.73705170       0.17986150
    12  C          0.42068000       0.26294830       0.82013850
    13  C          0.33852000       0.08575180       0.24769150
    14  C          0.66148000       0.91424820       0.75230850
    15  C          0.31844190       0.80742180       0.08777140
    16  C          0.68155810       0.19257820       0.91222860
    17  C          0.39472000       0.82241170       0.19588140
    18  C          0.60528000       0.17758830       0.80411860
    19  C          0.65802000       0.63520180       0.25662150
    20  C          0.34198000       0.36479820       0.74337850
    21  H          0.59820000       0.61730000       0.32110000
    22  H          0.40180000       0.38270000       0.67890000
    23  C          0.29302000       0.47968180       0.36211150
    24  C          0.70698000       0.52031820       0.63788850
    25  H          0.28520000       0.56660000       0.38960000
    26  H          0.71480000       0.43340000       0.61040000
    27  C          0.41712000       0.40131180       0.27964150
    28  C          0.58288000       0.59868820       0.72035850
    29  H          0.49410000       0.43500000       0.25040000
    30  H          0.50590000       0.56500000       0.74960000
    31  C          0.42932000       0.27491180       0.24003150
    32  C          0.57068000       0.72508820       0.75996850
    33  H          0.51370000       0.22270000       0.18260000
    34  H          0.48630000       0.77730000       0.81740000
    35  C          0.31842000       0.22272170       0.28361140
    36  C          0.68158000       0.77727830       0.71638860
    37  C          0.36182000       0.97011190       0.22143140
    38  C          0.63818000       0.02988810       0.77856860
    39  C          0.24112000       0.91658190       0.01702150
    40  C          0.75888000       0.08341810       0.98297850
    41  H          0.23560000       0.00610000       0.03390000
    42  H          0.76440000      -0.00610000       0.96610000
    43  C          0.91252000       0.58672000       0.14701180
    44  C          0.08748000       0.41328000       0.85298820
    45  H          0.02650000       0.53520000       0.13600000
    46  H          0.97350000       0.46480000       0.86400000
    47  C          0.25742000       0.65642000       0.96538840
    48  C          0.74258000       0.34358000       0.03461160
    49  H          0.26280000       0.56700000       0.94830000
    50  H          0.73720000       0.43300000       0.05170000
    51  C          0.66912000       0.76307190       0.08681160
    52  C          0.33088000       0.23692810       0.91318840
    53  H          0.61590000       0.83250000       0.03360000
    54  H          0.38410000       0.16750000       0.96640000
    55  C          0.32712000       0.67648190       0.05964160
    56  C          0.67288000       0.32351810       0.94035840
    57  H          0.38210000       0.59980000       0.10640000
    58  H          0.61790000       0.40020000       0.89360000
    59  C          0.17972000       0.76662000       0.89585840
    60  C          0.82028000       0.23338000       0.10414160
    61  H          0.13210000       0.75280000       0.83050000
    62  H          0.86790000       0.24720000       0.16950000
    63  C          0.17102000       0.89672000       0.92099840
    64  C          0.82898000       0.10328000       0.07900160
    65  H          0.11740000       0.97250000       0.87310000
    66  H          0.88260000       0.02750000       0.12690000
    67  C          0.82482000       0.55900190       0.23918160
    68  C          0.17518000       0.44099810       0.76081840
    69  H          0.87840000       0.48770000       0.29090000
    70  H          0.12160000       0.51230000       0.70910000
    71  C          0.83512000       0.68882000       0.07114170
    72  C          0.16488000       0.31118000       0.92885830
    73  H          0.89560000       0.70820000       0.00810000
    74  H          0.10440000       0.29180000      -0.00810000
    75  H          0.20440000       0.83150000       0.29860000
    76  H          0.79560000       0.16850000       0.70140000
    77  N          0.00279180       0.91910160       0.33692120
    78  N         -0.00279180       0.08089840       0.66307880
    79  C          0.94818000       0.05092000       0.37276160
    80  C          0.05182000       0.94908000       0.62723840
    81  H          0.02140000       0.09350000       0.36670000
    82  H          0.97860000       0.90650000       0.63330000
    83  C          0.89677000       0.86262000       0.34591160
    84  C          0.10323000       0.13738000       0.65408840
    85  H          0.93230000       0.76860000       0.32020000
    86  H          0.06770000       0.23140000       0.67980000
    87  C          0.68617000       0.06853000       0.42758190
    88  C          0.31383000       0.93147000       0.57241810
    89  H          0.57780000       0.11960000       0.45950000
    90  H          0.42220000       0.88040000       0.54050000
    91  C          0.79247000       0.12912000       0.41799160
    92  C          0.20753000       0.87088000       0.58200840
    93  H          0.75900000       0.22330000       0.44210000
    94  H          0.24100000       0.77670000       0.55790000
    95  C          0.73877000       0.93343000       0.39042000
    96  C          0.26123000       0.06657000       0.60958000
    97  H          0.66720000       0.88910000       0.39530000
    98  H          0.33280000       0.11090000       0.60470000
