data_UHEPII
_symmetry_space_group_name_H-M    'P1'
_symmetry_Int_Tables_number       1
loop_
_symmetry_equiv_pos_site_id
_symmetry_equiv_pos_as_xyz
1 x,y,z
_cell_length_a                   15.26349
_cell_length_b                   13.46929
_cell_length_c                   11.97617
_cell_angle_alpha                90.0
_cell_angle_beta                 108.8253
_cell_angle_gamma                90.0
loop_
_atom_site_label
_atom_site_type_symbol
_atom_site_fract_x
_atom_site_fract_y
_atom_site_fract_z
     1  Br         0.57031500       0.16742500       0.53416600
     2  Br         0.42968500       0.66742500       0.96583400
     3  Br         0.42968500       0.83257500       0.46583400
     4  Br         0.57031500       0.33257500       0.03416600
     5  H          0.51940000       0.12840000       0.51050000
     6  H          0.48060000       0.62840000      -0.01050000
     7  H          0.48060000       0.87160000       0.48950000
     8  H          0.51940000       0.37160000       0.01050000
     9  S          0.48425100       0.61302110       0.35575130
    10  S          0.51574900       0.11302110       0.14424870
    11  S          0.51574900       0.38697890       0.64424870
    12  S          0.48425100       0.88697890       0.85575130
    13  N          0.24533000       0.43143000       0.07284000
    14  N          0.75467000       0.93143000       0.42716000
    15  N          0.75467000       0.56857000       0.92716000
    16  N          0.24533000       0.06857000       0.57284000
    17  C          0.52944000       0.50884000       0.31275000
    18  C          0.47056000       0.00884000       0.18725000
    19  C          0.47056000       0.49116000       0.68725000
    20  C          0.52944000      -0.00884000       0.81275000
    21  C          0.20044000       0.34684000       0.09775000
    22  C          0.79956000       0.84684000       0.40225000
    23  C          0.79956000       0.65316000       0.90225000
    24  C          0.20044000       0.15316000       0.59775000
    25  N          0.61033000       0.48043000       0.39084000
    26  N          0.38967000       0.98043000       0.10916000
    27  N          0.38967000       0.51957000       0.60916000
    28  N          0.61033000       0.01957000       0.89084000
    29  C          0.26754000       0.29634000       0.17945000
    30  C          0.73246000       0.79634000       0.32055000
    31  C          0.73246000       0.70366000       0.82055000
    32  C          0.26754000       0.20366000       0.67945000
    33  C          0.73364000       0.40064000       0.32975000
    34  C          0.26636000       0.90064000       0.17025000
    35  C          0.26636000       0.59936000       0.67025000
    36  C          0.73364000       0.09936000       0.82975000
    37  N          0.39983000       0.49383000       0.14864000
    38  N          0.60017000      -0.00617000       0.35136000
    39  N          0.60017000       0.50617000       0.85136000
    40  N          0.39983000       0.00617000       0.64864000
    41  C          0.33423000       0.42184000       0.14264000
    42  C          0.66577000       0.92184000       0.35736000
    43  C          0.66577000       0.57816000       0.85736000
    44  C          0.33423000       0.07816000       0.64264000
    45  C          0.76454000       0.46045000       0.65565000
    46  C          0.23546000       0.96045000       0.84435000
    47  C          0.23546000       0.53955000       0.34435000
    48  C          0.76454000       0.03955000       0.15565000
    49  N          0.49033000       0.46344000       0.20874000
    50  N          0.50967000       0.96344000       0.29126000
    51  N          0.50967000       0.53656000       0.79126000
    52  N          0.49033000       0.03656000       0.70874000
    53  O          0.04113000       0.35614000       0.98266000
    54  O          0.95887000       0.85614000       0.51734000
    55  O          0.95887000       0.64386000       0.01734000
    56  O          0.04113000       0.14386000       0.48266000
    57  C          0.64074000       0.54684000       0.48824000
    58  C          0.35926000       0.04684000       0.01176000
    59  C          0.35926000       0.45316000       0.51176000
    60  C          0.64074000       0.95316000      -0.01176000
    61  C          0.65684000       0.38494000       0.38055000
    62  C          0.34316000       0.88494000       0.11945000
    63  C          0.34316000       0.61506000       0.61945000
    64  C          0.65684000       0.11506000       0.88055000
    65  C          0.16094000       0.17345000       0.19575000
    66  C          0.83906000       0.67345000       0.30425000
    67  C          0.83906000       0.82655000       0.80425000
    68  C          0.16094000       0.32655000       0.69575000
    69  N          0.35243000       0.34073000       0.20854000
    70  N          0.64757000       0.84073000       0.29146000
    71  N          0.64757000       0.65927000       0.79146000
    72  N          0.35243000       0.15927000       0.70854000
    73  N          0.25003000       0.20873000       0.22744000
    74  N          0.74997000       0.70873000       0.27256000
    75  N          0.74997000       0.79127000       0.77256000
    76  N          0.25003000       0.29127000       0.72744000
    77  C          0.10654000       0.31714000       0.05625000
    78  C          0.89346000       0.81714000       0.44375000
    79  C          0.89346000       0.68286000       0.94375000
    80  C          0.10654000       0.18286000       0.55625000
    81  O          0.14223000       0.09703000       0.23954000
    82  O          0.85777000       0.59703000       0.26046000
    83  O          0.85777000       0.90297000       0.76046000
    84  O          0.14223000       0.40297000       0.73954000
    85  C          0.73544000       0.53874000       0.57604000
    86  C          0.26456000       0.03874000       0.92396000
    87  C          0.26456000       0.46126000       0.42396000
    88  C          0.73544000       0.96126000       0.07604000
    89  C          0.88544000       0.61135000       0.65466000
    90  C          0.11456000       0.11135000       0.84534000
    91  C          0.11456000       0.38865000       0.34534000
    92  C          0.88544000       0.88865000       0.15466000
    93  C          0.57854000       0.61754000       0.48255000
    94  C          0.42146000       0.11754000       0.01745000
    95  C          0.42146000       0.38246000       0.51745000
    96  C          0.57854000       0.88246000       0.98255000
    97  N          0.09423000       0.22644000       0.11284000
    98  N          0.90577000       0.72644000       0.38716000
    99  N          0.90577000       0.77356000       0.88716000
   100  N          0.09423000       0.27356000       0.61284000
   101  C          0.78185000       0.30235000       0.32266000
   102  C          0.21815000       0.80235000       0.17734000
   103  C          0.21815000       0.69765000       0.67734000
   104  C          0.78185000       0.19765000       0.82266000
   105  C          0.79664000       0.61375000       0.57795000
   106  C          0.20336000       0.11375000       0.92205000
   107  C          0.20336000       0.38625000       0.42205000
   108  C          0.79664000       0.88625000       0.07795000
   109  C          0.85405000       0.45915000       0.73365000
   110  C          0.14595000       0.95915000       0.76635000
   111  C          0.14595000       0.54085000       0.26635000
   112  C          0.85405000       0.04085000       0.23365000
   113  C         -0.00015000       0.18876000       0.08207000
   114  C          0.00015000       0.68876000       0.41793000
   115  C          0.00015000       0.81124000       0.91793000
   116  C         -0.00015000       0.31124000       0.58207000
   117  C          0.32315000       0.15854000       0.32006000
   118  C          0.67685000       0.65854000       0.17994000
   119  C          0.67685000       0.84146000       0.67994000
   120  C          0.32315000       0.34146000       0.82006000
   121  C          0.20214000       0.51305000      -0.00305000
   122  C          0.79786000       0.01305000       0.50305000
   123  C          0.79786000       0.48695000       0.00305000
   124  C          0.20214000       0.98695000       0.49695000
   125  C          0.91405000       0.53226000       0.73176000
   126  C          0.08595000       0.03226000       0.76824000
   127  C          0.08595000       0.46774000       0.26824000
   128  C          0.91405000       0.96774000       0.23176000
   129  C          0.85316000       0.31516000       0.26339000
   130  C          0.14684000       0.81516000       0.23661000
   131  C          0.14684000       0.68484000       0.73661000
   132  C          0.85316000       0.18484000       0.76339000
   133  H          0.00015400       0.12885800       0.12566000
   134  H         -0.00015400       0.62885800       0.37434000
   135  H         -0.00015400       0.87114200       0.87434000
   136  H          0.00015400       0.37114200       0.62566000
   137  H          0.97675400       0.17455800      -0.00104000
   138  H          0.02324600       0.67455800       0.50104000
   139  H          0.02324600       0.82544200       0.00104000
   140  H          0.97675400       0.32544200       0.49896000
   141  H          0.96085400       0.23715800       0.10116000
   142  H          0.03914600       0.73715800       0.39884000
   143  H          0.03914600       0.76284200       0.89884000
   144  H          0.96085400       0.26284200       0.60116000
   145  H          0.38078100       0.19218000       0.33203800
   146  H          0.61921900       0.69218000       0.16796200
   147  H          0.61921900       0.80782000       0.66796200
   148  H          0.38078100       0.30782000       0.83203800
   149  H          0.32828100       0.09108000       0.29663800
   150  H          0.67171900       0.59108000       0.20336200
   151  H          0.67171900       0.90892000       0.70336200
   152  H          0.32828100       0.40892000       0.79663800
   153  H          0.30838100       0.15878000       0.39213800
   154  H          0.69161900       0.65878000       0.10786200
   155  H          0.69161900       0.84122000       0.60786200
   156  H          0.30838100       0.34122000       0.89213800
   157  H          0.13777400       0.49872100       0.95854800
   158  H          0.86222600      -0.00127900       0.54145200
   159  H          0.86222600       0.50127900       0.04145200
   160  H          0.13777400       0.00127900       0.45854800
   161  H          0.23217400       0.52262100       0.93874800
   162  H          0.76782600       0.02262100       0.56125200
   163  H          0.76782600       0.47737900       0.06125200
   164  H          0.23217400       0.97737900       0.43874800
   165  H          0.20787400       0.57222100       0.04354800
   166  H          0.79212600       0.07222100       0.45645200
   167  H          0.79212600       0.42777900       0.95645200
   168  H          0.20787400       0.92777900       0.54354800
   169  H          0.38942300       0.55929000       0.11538400
   170  H          0.61057700       0.05929000       0.38461600
   171  H          0.61057700       0.44071000       0.88461600
   172  H          0.38942300       0.94071000       0.61538400
   173  H          0.61240500       0.34113900       0.32855500
   174  H          0.38759500       0.84113900       0.17144500
   175  H          0.38759500       0.65886100       0.67144500
   176  H          0.61240500       0.15886100       0.82855500
   177  H          0.68190500       0.35443900       0.45655500
   178  H          0.31809500       0.85443900       0.04344500
   179  H          0.31809500       0.64556100       0.54344500
   180  H          0.68190500       0.14556100       0.95655500
   181  H          0.77786400       0.44609700       0.37866000
   182  H          0.22213600       0.94609700       0.12134000
   183  H          0.22213600       0.55390300       0.62134000
   184  H          0.77786400       0.05390300       0.87866000
   185  H          0.70956400       0.42689700       0.25116000
   186  H          0.29043600       0.92689700       0.24884000
   187  H          0.29043600       0.57310300       0.74884000
   188  H          0.70956400       0.07310300       0.75116000
   189  H          0.81064100       0.27878200       0.40168800
   190  H          0.18935900       0.77878200       0.09831200
   191  H          0.18935900       0.72121800       0.59831200
   192  H          0.81064100       0.22121800       0.90168800
   193  H          0.73644100       0.25508200       0.27948800
   194  H          0.26355900       0.75508200       0.22051200
   195  H          0.26355900       0.74491800       0.72051200
   196  H          0.73644100       0.24491800       0.77948800
   197  H          0.88357500       0.25341500       0.26014000
   198  H          0.11642500       0.75341500       0.23986000
   199  H          0.11642500       0.74658500       0.73986000
   200  H          0.88357500       0.24658500       0.76014000
   201  H          0.89767500       0.36291500       0.30684000
   202  H          0.10232500       0.86291500       0.19316000
   203  H          0.10232500       0.63708500       0.69316000
   204  H          0.89767500       0.13708500       0.80684000
   205  H          0.82347500       0.33911500       0.18464000
   206  H          0.17652500       0.83911500       0.31536000
   207  H          0.17652500       0.66088500       0.81536000
   208  H          0.82347500       0.16088500       0.68464000
   209  H          0.97632700       0.53039300       0.78498700
   210  H          0.02367300       0.03039300       0.71501300
   211  H          0.02367300       0.46960700       0.21501300
   212  H          0.97632700       0.96960700       0.28498700
   213  H          0.87394200       0.40489900       0.78786600
   214  H          0.12605800       0.90489900       0.71213400
   215  H          0.12605800       0.59510100       0.21213400
   216  H          0.87394200       0.09510100       0.28786600
   217  H          0.72245000       0.40731000       0.65546800
   218  H          0.27755000       0.90731000       0.84453200
   219  H          0.27755000       0.59269000       0.34453200
   220  H          0.72245000       0.09269000       0.15546800
   221  H          0.92765300       0.66419900       0.65498400
   222  H          0.07234700       0.16419900       0.84501600
   223  H          0.07234700       0.33580100       0.34501600
   224  H          0.92765300       0.83580100       0.15498400
   225  H          0.77714300       0.66847500       0.52433200
   226  H          0.22285700       0.16847500       0.97566800
   227  H          0.22285700       0.33152500       0.47566800
   228  H          0.77714300       0.83152500       0.02433200
   229  H          0.59050500       0.66415400       0.54630000
   230  H          0.40949500       0.16415400       0.95370000
   231  H          0.40949500       0.33584600       0.45370000
   232  H          0.59050500       0.83584600       0.04630000
