data_UHODUU
_symmetry_space_group_name_H-M    'P1'
_symmetry_Int_Tables_number       1
loop_
_symmetry_equiv_pos_site_id
_symmetry_equiv_pos_as_xyz
1 x,y,z
_cell_length_a                   7.361817
_cell_length_b                   8.2912
_cell_length_c                   13.2653
_cell_angle_alpha                85.9039
_cell_angle_beta                 88.7257
_cell_angle_gamma                66.4638
loop_
_atom_site_label
_atom_site_type_symbol
_atom_site_fract_x
_atom_site_fract_y
_atom_site_fract_z
     1  Cl         0.50000000      -0.00000000      -0.00000000
     2  Cl         0.77642150       0.74680140       0.03251800
     3  Cl         0.22357850       0.25319860       0.96748200
     4  O          0.67144000       0.39993000       0.62852170
     5  O          0.32856000       0.60007000       0.37147830
     6  N          0.62104000       0.56604000       0.64792000
     7  N          0.37896000       0.43396000       0.35208000
     8  C          0.62435000       0.78115000       0.75522000
     9  C          0.37565000       0.21885000       0.24478000
    10  H          0.66543800       0.80837400       0.81677900
    11  H          0.33456200       0.19162600       0.18322100
    12  C          0.51055000       0.69745000       0.57923000
    13  C          0.48945000       0.30255000       0.42077000
    14  H          0.47180400       0.66819300       0.51757900
    15  H          0.52819600       0.33180700       0.48242100
    16  C          0.51125000       0.91885000       0.68723000
    17  C          0.48875000       0.08115000       0.31277000
    18  C          0.67875000       0.60695000       0.73642000
    19  C          0.32125000       0.39305000       0.26358000
    20  C          0.45505000       0.86975000       0.59803000
    21  C          0.54495000       0.13025000       0.40197000
    22  H          0.37623300       0.95884600       0.54954800
    23  H          0.62376700       0.04115400       0.45045200
    24  C          0.79976000       0.45595000       0.80683000
    25  C          0.20024000       0.54405000       0.19317000
    26  H          0.72708500       0.38096100       0.82339800
    27  H          0.27291500       0.61903900       0.17660200
    28  H          0.82625400       0.50045700       0.86887200
    29  H          0.17374600       0.49954300       0.13112800
    30  H          0.92530600       0.38686500       0.77461700
    31  H          0.07469400       0.61313500       0.22538300
    32  C          0.45036000       0.10795000       0.70793000
    33  C          0.54964000       0.89205000       0.29207000
    34  H          0.47371900       0.11630100       0.77940100
    35  H          0.52628100       0.88369900       0.22059900
    36  H          0.30920000       0.17280500       0.69203700
    37  H          0.69080000       0.82719500       0.30796300
    38  H          0.52812400       0.15858700       0.66587200
    39  H          0.47187600       0.84141300       0.33412800
    40  O          0.89336000       0.95584000       0.55602170
    41  O          0.10664000       0.04416000       0.44397830
    42  N          0.98576000       0.89434000       0.64722000
    43  N          0.01424000       0.10566000       0.35278000
    44  C          0.08185000       0.71795000       0.66702000
    45  C          0.91815000       0.28205000       0.33298000
    46  C          0.16405000       0.77505000       0.83252000
    47  C          0.83595000       0.22495000       0.16748000
    48  C          0.16965000       0.65985000       0.76072000
    49  C          0.83035000       0.34015000       0.23928000
    50  H          0.23624200       0.53657600       0.77656100
    51  H          0.76375800       0.46342400       0.22343900
    52  C          0.97395000       0.01265000       0.71422000
    53  C          0.02605000      -0.01265000       0.28578000
    54  H          0.90484100       0.13514200       0.69707800
    55  H          0.09515900       0.86485800       0.30292200
    56  C          0.06265000       0.95485000       0.80773000
    57  C          0.93735000       0.04515000       0.19227000
    58  H          0.05456600       0.03767800       0.85528800
    59  H          0.94543400       0.96232200       0.14471200
    60  C          0.26406000       0.70895000       0.93363000
    61  C          0.73594000       0.29105000       0.06637000
    62  H          0.39390700       0.71583100       0.93219200
    63  H          0.60609300       0.28416900       0.06780800
    64  H          0.28126500       0.58615600       0.94845500
    65  H          0.71873500       0.41384400       0.05154500
    66  H          0.18226100       0.78164100       0.98595200
    67  H          0.81773900       0.21835900       0.01404800
    68  C          0.08056000       0.60175000       0.58733000
    69  C          0.91944000       0.39825000       0.41267000
    70  H          0.14700800       0.62628700       0.52693700
    71  H          0.85299200       0.37371300       0.47306300
    72  H          0.94338300       0.62387600       0.57021300
    73  H          0.05661700       0.37612400       0.42978700
    74  H          0.15040700       0.47810200       0.61197000
    75  H          0.84959300       0.52189800       0.38803000
    76  H         -0.00000000      -0.00000000       0.50000000
