data_UHORUF
_symmetry_space_group_name_H-M    'P1'
_symmetry_Int_Tables_number       1
loop_
_symmetry_equiv_pos_site_id
_symmetry_equiv_pos_as_xyz
1 x,y,z
_cell_length_a                   7.958215
_cell_length_b                   9.216715
_cell_length_c                   9.684519
_cell_angle_alpha                73.6729
_cell_angle_beta                 81.86811
_cell_angle_gamma                70.6509
loop_
_atom_site_label
_atom_site_type_symbol
_atom_site_fract_x
_atom_site_fract_y
_atom_site_fract_z
     1  S          0.33955600       0.36843500       0.13710400
     2  S          0.66044400       0.63156500       0.86289600
     3  O          0.32027150       0.45848140       0.85084870
     4  O          0.67972850       0.54151860       0.14915130
     5  N          0.54077180       0.23896160       0.93554860
     6  N          0.45922820       0.76103840       0.06445140
     7  H          0.59400000       0.16690000       0.01030000
     8  H          0.40600000       0.83310000      -0.01030000
     9  C          0.40272000       0.35711180       0.96700830
    10  C          0.59728000       0.64288820       0.03299170
    11  C          0.61412000       0.21291190       0.79863830
    12  C          0.38588000       0.78708810       0.20136170
    13  C          0.61362000       0.33389190       0.67412830
    14  C          0.38638000       0.66610810       0.32587170
    15  H          0.55840000       0.44180000       0.67630000
    16  H          0.44160000       0.55820000       0.32370000
    17  C          0.69442000       0.29582000       0.54671820
    18  C          0.30558000       0.70418000       0.45328180
    19  H          0.69170000       0.37820000       0.46130000
    20  H          0.30830000       0.62180000       0.53870000
    21  C          0.77912000       0.13882000       0.54276820
    22  C          0.22088000       0.86118000       0.45723180
    23  H          0.83490000       0.11400000       0.45530000
    24  H          0.16510000       0.88600000       0.54470000
    25  C          0.78202000       0.01812000       0.66742810
    26  C          0.21798000       0.98188000       0.33257190
    27  H          0.84090000       0.91060000       0.66550000
    28  H          0.15910000       0.08940000       0.33450000
    29  C          0.69872000       0.05463190       0.79467820
    30  C          0.30128000       0.94536810       0.20532180
    31  H          0.69920000       0.97180000       0.87940000
    32  H          0.30080000       0.02820000       0.12060000
    33  C          0.18142000       0.60132000       0.86708000
    34  C          0.81858000       0.39868000       0.13292000
    35  H          0.08870000       0.57310000       0.93740000
    36  H          0.91130000       0.42690000       0.06260000
    37  H          0.12910000       0.65990000       0.77410000
    38  H          0.87090000       0.34010000       0.22590000
    39  H          0.23200000       0.66790000       0.90100000
    40  H          0.76800000       0.33210000       0.09900000
    41  N          0.75042190       0.98293160       0.16113150
    42  N          0.24957810       0.01706840       0.83886850
    43  C          0.89122000       0.85952000       0.13976180
    44  C          0.10878000       0.14048000       0.86023820
    45  H          0.95040000       0.86860000       0.04680000
    46  H          0.04960000       0.13140000       0.95320000
    47  C          0.95522000       0.72067190       0.24430170
    48  C          0.04478000       0.27932810       0.75569830
    49  H          0.05470000       0.63730000       0.22270000
    50  H          0.94530000       0.36270000       0.77730000
    51  C          0.87132000       0.70440180       0.38262170
    52  C          0.12868000       0.29559820       0.61737830
    53  C          0.72522000       0.83150190       0.40520170
    54  C          0.27478000       0.16849810       0.59479830
    55  H          0.66280000       0.82550000       0.49680000
    56  H          0.33720000       0.17450000       0.50320000
    57  C          0.67092000       0.96696190       0.29362180
    58  C          0.32908000       0.03303810       0.70637820
    59  H          0.57230000       0.05270000       0.31220000
    60  H          0.42770000       0.94730000       0.68780000
    61  C          0.92902000       0.56320190       0.50213170
    62  C          0.07098000       0.43679810       0.49786830
    63  H          0.85910000       0.56170000       0.59030000
    64  H          0.14090000       0.43830000       0.40970000
