data_UHOSEQ
_symmetry_space_group_name_H-M    'P1'
_symmetry_Int_Tables_number       1
loop_
_symmetry_equiv_pos_site_id
_symmetry_equiv_pos_as_xyz
1 x,y,z
_cell_length_a                   8.015617
_cell_length_b                   9.341017
_cell_length_c                   9.9163
_cell_angle_alpha                98.3247
_cell_angle_beta                 110.7665
_cell_angle_gamma                91.3102
loop_
_atom_site_label
_atom_site_type_symbol
_atom_site_fract_x
_atom_site_fract_y
_atom_site_fract_z
     1  S          0.33095600       0.66931400       0.68643400
     2  S          0.66904400       0.33068600       0.31356600
     3  O          0.34482150       0.40446120       0.55227120
     4  O          0.65517850       0.59553880       0.44772880
     5  N          0.54365170       0.46298140       0.77869130
     6  N          0.45634830       0.53701860       0.22130870
     7  H          0.59680000       0.53090000       0.85480000
     8  H          0.40320000       0.46910000       0.14520000
     9  C          0.40832000       0.50596160       0.67085160
    10  C          0.59168000       0.49403840       0.32914840
    11  C          0.61482000       0.32521160       0.78959160
    12  C          0.38518000       0.67478840       0.21040840
    13  C          0.59972000       0.21771170       0.67179170
    14  C          0.40028000       0.78228830       0.32820830
    15  H          0.53930000       0.23400000       0.57450000
    16  H          0.46070000       0.76600000       0.42550000
    17  C          0.67352000       0.08643180       0.69756180
    18  C          0.32648000       0.91356820       0.30243820
    19  H          0.66140000       0.01260000       0.61720000
    20  H          0.33860000      -0.01260000       0.38280000
    21  C          0.76442000       0.06181180       0.83871190
    22  C          0.23558000       0.93818820       0.16128810
    23  H          0.81440000       0.97190000       0.85530000
    24  H          0.18560000       0.02810000       0.14470000
    25  C          0.78122000       0.16961180       0.95503180
    26  C          0.21878000       0.83038820       0.04496820
    27  H          0.84430000       0.15380000       0.05200000
    28  H          0.15570000       0.84620000       0.94800000
    29  C          0.70702000       0.30076170       0.93157170
    30  C          0.29298000       0.69923830       0.06842830
    31  H          0.71910000       0.37400000       0.01240000
    32  H          0.28090000       0.62600000      -0.01240000
    33  C          0.20212000       0.43604170       0.42439170
    34  C          0.79788000       0.56395830       0.57560830
    35  H          0.23820000       0.52270000       0.39130000
    36  H          0.76180000       0.47730000       0.60870000
    37  H          0.09270000       0.45450000       0.44660000
    38  H          0.90730000       0.54550000       0.55340000
    39  C          0.16862000       0.30400180       0.30851180
    40  C          0.83138000       0.69599820       0.69148820
    41  H          0.07270000       0.31980000       0.21900000
    42  H          0.92730000       0.68020000       0.78100000
    43  H          0.13320000       0.21930000       0.34300000
    44  H          0.86680000       0.78070000       0.65700000
    45  H          0.27820000       0.28700000       0.28820000
    46  H          0.72180000       0.71300000       0.71180000
    47  N          0.74042180       0.68024140       0.05189140
    48  N          0.25957820       0.31975860       0.94810860
    49  C          0.87172000       0.65593180       0.17380180
    50  C          0.12828000       0.34406820       0.82619820
    51  H          0.92240000       0.56510000       0.17140000
    52  H          0.07760000       0.43490000       0.82860000
    53  C          0.93762000       0.75424170       0.30206170
    54  C          0.06238000       0.24575830       0.69793830
    55  H          0.03070000       0.73060000       0.38460000
    56  H          0.96930000       0.26940000       0.61540000
    57  C          0.86612000       0.88904160       0.30950160
    58  C          0.13388000       0.11095840       0.69049840
    59  C          0.73032000       0.91505170       0.18376170
    60  C          0.26968000       0.08494830       0.81623830
    61  H          0.67660000       0.00470000       0.18320000
    62  H          0.32340000      -0.00470000       0.81680000
    63  C          0.67342000       0.81026170       0.05940170
    64  C          0.32658000       0.18973830       0.94059830
    65  H          0.58190000       0.83160000       0.97460000
    66  H          0.41810000       0.16840000       0.02540000
    67  C          0.92832000       0.00159160       0.43969160
    68  C          0.07168000      -0.00159160       0.56030840
    69  H          0.86090000       0.08410000       0.43830000
    70  H          0.13910000       0.91590000       0.56170000
