data_UHUFOU
_symmetry_space_group_name_H-M    'P1'
_symmetry_Int_Tables_number       1
loop_
_symmetry_equiv_pos_site_id
_symmetry_equiv_pos_as_xyz
1 x,y,z
_cell_length_a                   22.4598
_cell_length_b                   6.8702
_cell_length_c                   12.0514
_cell_angle_alpha                90.0
_cell_angle_beta                 105.3094
_cell_angle_gamma                90.0
loop_
_atom_site_label
_atom_site_type_symbol
_atom_site_fract_x
_atom_site_fract_y
_atom_site_fract_z
     1  S         -0.00208300       0.87466100      -0.00054500
     2  S         -0.00208300       0.12533900       0.49945500
     3  S          0.49791700       0.37466100      -0.00054500
     4  S          0.49791700       0.62533900       0.49945500
     5  O          0.12890700       0.35832000       0.94043870
     6  O          0.12890700       0.64168000       0.44043870
     7  O          0.62890700       0.85832000       0.94043870
     8  O          0.62890700       0.14168000       0.44043870
     9  O          0.12609800       0.46362000       0.11424140
    10  O          0.12609800       0.53638000       0.61424140
    11  O          0.62609800       0.96362000       0.11424140
    12  O          0.62609800       0.03638000       0.61424140
    13  H          0.14880000       0.55210000       0.10010000
    14  H          0.14880000       0.44790000       0.60010000
    15  H          0.64880000       0.05210000       0.10010000
    16  H          0.64880000       0.94790000       0.60010000
    17  C          0.98013900       0.68493000       0.89748000
    18  C          0.98013900       0.31507000       0.39748000
    19  C          0.48013900       0.18493000       0.89748000
    20  C          0.48013900       0.81507000       0.39748000
    21  C          0.01066110       0.64943000       0.81328000
    22  C          0.01066110       0.35057000       0.31328000
    23  C          0.51066110       0.14943000       0.81328000
    24  C          0.51066110       0.85057000       0.31328000
    25  H          0.04310000       0.73300000       0.80580000
    26  H          0.04310000       0.26700000       0.30580000
    27  H          0.54310000       0.23300000       0.80580000
    28  H          0.54310000       0.76700000       0.30580000
    29  C         -0.00647110       0.49054000       0.73988000
    30  C         -0.00647110       0.50946000       0.23988000
    31  C          0.49352890      -0.00946000       0.73988000
    32  C          0.49352890       0.00946000       0.23988000
    33  H          0.01480000       0.46510000       0.68300000
    34  H          0.01480000       0.53490000       0.18300000
    35  H          0.51480000       0.96510000       0.68300000
    36  H          0.51480000       0.03490000       0.18300000
    37  C          0.94572880       0.36923000       0.74938000
    38  C          0.94572880       0.63077000       0.24938000
    39  C          0.44572880       0.86923000       0.74938000
    40  C          0.44572880       0.13077000       0.24938000
    41  H          0.93400000       0.26190000       0.69860000
    42  H          0.93400000       0.73810000       0.19860000
    43  H          0.43400000       0.76190000       0.69860000
    44  H          0.43400000       0.23810000       0.19860000
    45  C          0.91525880       0.40534000       0.83298000
    46  C          0.91525880       0.59466000       0.33298000
    47  C          0.41525880       0.90534000       0.83298000
    48  C          0.41525880       0.09466000       0.33298000
    49  H          0.88240000       0.32270000       0.83950000
    50  H          0.88240000       0.67730000       0.33950000
    51  H          0.38240000       0.82270000       0.83950000
    52  H          0.38240000       0.17730000       0.33950000
    53  C          0.93237890       0.56133000       0.90738000
    54  C          0.93237890       0.43867000       0.40738000
    55  C          0.43237890       0.06133000       0.90738000
    56  C          0.43237890       0.93867000       0.40738000
    57  H          0.91160000       0.58430000       0.96540000
    58  H          0.91160000       0.41570000       0.46540000
    59  H          0.41160000       0.08430000       0.96540000
    60  H          0.41160000       0.91570000       0.46540000
    61  C          0.05112900       0.03193000       0.95289810
    62  C          0.05112900       0.96807000       0.45289810
    63  C          0.55112900       0.53193000       0.95289810
    64  C          0.55112900       0.46807000       0.45289810
    65  H          0.08840000       0.95950000       0.94780000
    66  H          0.08840000       0.04050000       0.44780000
    67  H          0.58840000       0.45950000       0.94780000
    68  H          0.58840000       0.54050000       0.44780000
    69  H          0.03140000       0.09030000       0.87700000
    70  H          0.03140000       0.90970000       0.37700000
    71  H          0.53140000       0.59030000       0.87700000
    72  H          0.53140000       0.40970000       0.37700000
    73  C          0.06722100       0.18783000       0.04652000
    74  C          0.06722100       0.81217000       0.54652000
    75  C          0.56722100       0.68783000       0.04652000
    76  C          0.56722100       0.31217000       0.54652000
    77  H          0.02850000       0.25050000       0.05270000
    78  H          0.02850000       0.74950000       0.55270000
    79  H          0.52850000       0.75050000       0.05270000
    80  H          0.52850000       0.24950000       0.55270000
    81  H          0.08630000       0.12390000       0.12100000
    82  H          0.08630000       0.87610000       0.62100000
    83  H          0.58630000       0.62390000       0.12100000
    84  H          0.58630000       0.37610000       0.62100000
    85  C          0.11057100       0.34393000       0.02594180
    86  C          0.11057100       0.65607000       0.52594180
    87  C          0.61057100       0.84393000       0.02594180
    88  C          0.61057100       0.15607000       0.52594180
    89  N          0.23394800       0.05243000       0.19666140
    90  N          0.23394800       0.94757000       0.69666140
    91  N          0.73394800       0.55243000       0.19666140
    92  N          0.73394800       0.44757000       0.69666140
    93  N          0.18715800       0.77433000       0.08866140
    94  N          0.18715800       0.22567000       0.58866140
    95  N          0.68715800       0.27433000       0.08866140
    96  N          0.68715800       0.72567000       0.58866140
    97  N          0.23894800       0.00972000       0.00321150
    98  N          0.23894800      -0.00972000       0.50321150
    99  N          0.73894800       0.50972000       0.00321150
   100  N          0.73894800       0.49028000       0.50321150
   101  N          0.18451100       0.81753000       0.27576160
   102  N          0.18451100       0.18247000       0.77576160
   103  N          0.68451100       0.31753000       0.27576160
   104  N          0.68451100       0.68247000       0.77576160
   105  H          0.16350000       0.70830000       0.27090000
   106  H          0.16350000       0.29170000       0.77090000
   107  H          0.66350000       0.20830000       0.27090000
   108  H          0.66350000       0.79170000       0.77090000
   109  H          0.19370000       0.88420000       0.34040000
   110  H          0.19370000       0.11580000       0.84040000
   111  H          0.69370000       0.38420000       0.34040000
   112  H          0.69370000       0.61580000       0.84040000
   113  N          0.19280900       0.73993000       0.90218850
   114  N          0.19280900       0.26007000       0.40218850
   115  N          0.69280900       0.23993000       0.90218850
   116  N          0.69280900       0.76007000       0.40218850
   117  H          0.17120000       0.63190000       0.89750000
   118  H          0.17120000       0.36810000       0.39750000
   119  H          0.67120000       0.13190000       0.89750000
   120  H          0.67120000       0.86810000       0.39750000
   121  H          0.20510000       0.78030000       0.84260000
   122  H          0.20510000       0.21970000       0.34260000
   123  H          0.70510000       0.28030000       0.84260000
   124  H          0.70510000       0.71970000       0.34260000
   125  C          0.28500900       0.29413000       0.10826170
   126  C          0.28500900       0.70587000       0.60826170
   127  C          0.78500900       0.79413000       0.10826170
   128  C          0.78500900       0.20587000       0.60826170
   129  C          0.29381100       0.41683000       0.20373190
   130  C          0.29381100       0.58317000       0.70373190
   131  C          0.79381100       0.91683000       0.20373190
   132  C          0.79381100       0.08317000       0.70373190
   133  H          0.27640000       0.38350000       0.26500000
   134  H          0.27640000       0.61650000       0.76500000
   135  H          0.77640000       0.88350000       0.26500000
   136  H          0.77640000       0.11650000       0.76500000
   137  C          0.32786100       0.58733000       0.20952000
   138  C          0.32786100       0.41267000       0.70952000
   139  C          0.82786100       0.08733000       0.20952000
   140  C          0.82786100       0.91267000       0.70952000
   141  H          0.33370000       0.66990000       0.27470000
   142  H          0.33370000       0.33010000       0.77470000
   143  H          0.83370000       0.16990000       0.27470000
   144  H          0.83370000       0.83010000       0.77470000
   145  C          0.35334100       0.63733000       0.12002000
   146  C          0.35334100       0.36267000       0.62002000
   147  C          0.85334100       0.13733000       0.12002000
   148  C          0.85334100       0.86267000       0.62002000
   149  H          0.37670000       0.75350000       0.12400000
   150  H          0.37670000       0.24650000       0.62400000
   151  H          0.87670000       0.25350000       0.12400000
   152  H          0.87670000       0.74650000       0.62400000
   153  C          0.34444100       0.51694000       0.02512000
   154  C          0.34444100       0.48306000       0.52512000
   155  C          0.84444100       0.01694000       0.02512000
   156  C          0.84444100      -0.01694000       0.52512000
   157  H          0.36180000       0.55090000       0.96390000
   158  H          0.36180000       0.44910000       0.46390000
   159  H          0.86180000       0.05090000       0.96390000
   160  H          0.86180000       0.94910000       0.46390000
   161  C          0.31028100       0.34643000       0.01842000
   162  C          0.31028100       0.65357000       0.51842000
   163  C          0.81028100       0.84643000       0.01842000
   164  C          0.81028100       0.15357000       0.51842000
   165  H          0.30410000       0.26530000       0.95240000
   166  H          0.30410000       0.73470000       0.45240000
   167  H          0.80410000       0.76530000       0.95240000
   168  H          0.80410000       0.23470000       0.45240000
   169  C          0.25048900       0.10753000       0.10270170
   170  C          0.25048900       0.89247000       0.60270170
   171  C          0.75048900       0.60753000       0.10270170
   172  C          0.75048900       0.39247000       0.60270170
   173  C          0.20244900       0.88183000       0.18520170
   174  C          0.20244900       0.11817000       0.68520170
   175  C          0.70244900       0.38183000       0.18520170
   176  C          0.70244900       0.61817000       0.68520170
   177  C          0.20704900       0.84263000       0.00015170
   178  C          0.20704900       0.15737000       0.50015170
   179  C          0.70704900       0.34263000       0.00015170
   180  C          0.70704900       0.65737000       0.50015170
