data_UJEVUD
_symmetry_space_group_name_H-M    'P1'
_symmetry_Int_Tables_number       1
loop_
_symmetry_equiv_pos_site_id
_symmetry_equiv_pos_as_xyz
1 x,y,z
_cell_length_a                   10.45094
_cell_length_b                   12.29724
_cell_length_c                   13.71765
_cell_angle_alpha                64.8752
_cell_angle_beta                 77.8382
_cell_angle_gamma                65.8542
loop_
_atom_site_label
_atom_site_type_symbol
_atom_site_fract_x
_atom_site_fract_y
_atom_site_fract_z
     1  P          0.17884600       0.60760500       0.75424400
     2  P          0.82115400       0.39239500       0.24575600
     3  F          0.22514140       0.70402130       0.77632110
     4  F          0.77485860       0.29597870       0.22367890
     5  F          0.04782140       0.72642130       0.69073110
     6  F          0.95217860       0.27357870       0.30926890
     7  F          0.08366140       0.58926130       0.86478100
     8  F          0.91633860       0.41073870       0.13521900
     9  F          0.13176140       0.51083130       0.73376110
    10  F          0.86823860       0.48916870       0.26623890
    11  F          0.27396140       0.62453140       0.64536100
    12  F          0.72603860       0.37546860       0.35463900
    13  F          0.31001140       0.48897130       0.81923110
    14  F          0.68998860       0.51102870       0.18076890
    15  P          0.85186400       0.27986600       0.67117500
    16  P          0.14813600       0.72013400       0.32882500
    17  F          0.00454140       0.16965130       0.68841120
    18  F         -0.00454140       0.83034870       0.31158880
    19  F          0.79510850       0.19377130       0.64359120
    20  F          0.20489150       0.80622870       0.35640880
    21  F          0.90857840       0.36481140       0.70025130
    22  F          0.09142160       0.63518860       0.29974870
    23  F          0.81217840       0.21256140       0.79656120
    24  F          0.18782160       0.78743860       0.20343880
    25  F          0.69843850       0.38830130       0.65724150
    26  F          0.30156150       0.61169870       0.34275850
    27  F          0.89254820       0.34525160       0.54778120
    28  F          0.10745180       0.65474840       0.45221880
    29  S          0.66643700       0.02394600       0.37439500
    30  S          0.33356300       0.97605400       0.62560500
    31  S          0.63740700       0.00084600       0.60009500
    32  S          0.36259300      -0.00084600       0.39990500
    33  C          0.56323000       0.00502000       0.49491170
    34  C          0.43677000      -0.00502000       0.50508830
    35  C          0.79983000       0.03413000       0.42352000
    36  C          0.20017000       0.96587000       0.57648000
    37  H          0.87790000       0.04640000       0.37990000
    38  H          0.12210000       0.95360000       0.62010000
    39  C          0.78713000       0.02403000       0.52412000
    40  C          0.21287000       0.97597000       0.47588000
    41  H          0.85570000       0.02910000       0.55380000
    42  H          0.14430000       0.97090000       0.44620000
    43  O          0.81002150       0.82734860       0.88200120
    44  O          0.18997850       0.17265140       0.11799880
    45  O          0.23348150       0.06609140       0.88884120
    46  O          0.76651850       0.93390860       0.11115880
    47  N          0.36179180       0.27617160       0.69769130
    48  N          0.63820820       0.72382840       0.30230870
    49  N          0.33756180       0.34067160       0.17009130
    50  N          0.66243820       0.65932840       0.82990870
    51  C          0.58642000       0.81440810       0.91548150
    52  C          0.41358000       0.18559190       0.08451850
    53  C          0.33782000       0.32871180       0.48400160
    54  C          0.66218000       0.67128820       0.51599840
    55  C          0.60302000       0.02335190       0.85553150
    56  C          0.39698000       0.97664810       0.14446850
    57  H          0.65740000       0.07390000       0.83610000
    58  H          0.34260000       0.92610000       0.16390000
    59  C          0.33282000       0.34023180       0.37269160
    60  C          0.66718000       0.65976820       0.62730840
    61  C          0.37622000       0.00372000       0.88949160
    62  C          0.62378000      -0.00372000       0.11050840
    63  C          0.45702000       0.08113190       0.85580150
    64  C          0.54298000       0.91886810       0.14419850
    65  C          0.34722000       0.32692000       0.06530160
    66  C          0.65278000       0.67308000       0.93469840
    67  H          0.40380000       0.37300000       0.01250000
    68  H          0.59620000       0.62700000       0.98750000
    69  H          0.25440000       0.36240000       0.03800000
    70  H          0.74560000       0.63760000       0.96200000
    71  C          0.24502000       0.28212000       0.66645170
    72  C          0.75498000       0.71788000       0.33354830
    73  H          0.17290000       0.26820000       0.71710000
    74  H          0.82710000       0.73180000       0.28290000
    75  C          0.66782000       0.89128000       0.88402150
    76  C          0.33218000       0.10872000       0.11597850
    77  C          0.44512000       0.35252000       0.29831170
    78  C          0.55488000       0.64748000       0.70168830
    79  H          0.52030000       0.36080000       0.31680000
    80  H          0.47970000       0.63920000       0.68320000
    81  C          0.22602000       0.33132000       0.23868170
    82  C          0.77398000       0.66868000       0.76131830
    83  H          0.15150000       0.32450000       0.21760000
    84  H          0.84850000       0.67550000       0.78240000
    85  C          0.44122000       0.87108000       0.91953160
    86  C          0.55878000       0.12892000       0.08046840
    87  H          0.38700000       0.81990000       0.94250000
    88  H          0.61300000       0.18010000       0.05750000
    89  C          0.44552000       0.35242000       0.19845160
    90  C          0.55448000       0.64758000       0.80154840
    91  H          0.52110000       0.36050000       0.14980000
    92  H          0.47890000       0.63950000       0.85020000
    93  C          0.38772000       0.22562000       0.81464160
    94  C          0.61228000       0.77438000       0.18535840
    95  H          0.29950000       0.24970000       0.85470000
    96  H          0.70050000       0.75030000       0.14530000
    97  H          0.44770000       0.26250000       0.82460000
    98  H          0.55230000       0.73750000       0.17540000
    99  C          0.22112000       0.33172000       0.33947170
   100  C          0.77888000       0.66828000       0.66052830
   101  H          0.14300000       0.32630000       0.38570000
   102  H          0.85700000       0.67370000       0.61430000
   103  C          0.46342000       0.30352000       0.62430170
   104  C          0.53658000       0.69648000       0.37569830
   105  H          0.54150000       0.30420000       0.64600000
   106  H          0.45850000       0.69580000       0.35400000
   107  C          0.23042000       0.30842000       0.56116170
   108  C          0.76958000       0.69158000       0.43883830
   109  H          0.14850000       0.31260000       0.54090000
   110  H          0.85150000       0.68740000       0.45910000
   111  C          0.45302000       0.33052000       0.51797170
   112  C          0.54698000       0.66948000       0.48202830
   113  H          0.52370000       0.35010000       0.46800000
   114  H          0.47630000       0.64990000       0.53200000
   115  C          0.15122000       0.98918000       0.90804190
   116  C          0.84878000       0.01082000       0.09195810
   117  H          0.18120000       0.94720000       0.85770000
   118  H          0.81880000       0.05280000       0.14230000
   119  H          0.05390000       0.04340000       0.89910000
   120  H          0.94610000       0.95660000       0.10090000
   121  H          0.16340000       0.92550000       0.98020000
   122  H          0.83660000       0.07450000       0.01980000
   123  C          0.89652000       0.90408000       0.84307190
   124  C          0.10348000       0.09592000       0.15692810
   125  H          0.87280000       0.96450000       0.77090000
   126  H          0.12720000       0.03550000       0.22910000
   127  H         -0.00660000       0.84920000       0.84340000
   128  H          0.00660000       0.15080000       0.15660000
   129  H          0.88110000       0.94990000       0.88880000
   130  H          0.11890000       0.05010000       0.11120000
   131  N          0.69778000       0.36452190       0.98353170
   132  N          0.30222000       0.63547810       0.01646830
   133  C          0.81167000       0.35412000       0.95673170
   134  C          0.18833000       0.64588000       0.04326830
   135  C          0.95628000       0.34432000       0.92252000
   136  C          0.04372000       0.65568000       0.07748000
   137  H          0.95910000       0.40590000       0.85050000
   138  H          0.04090000       0.59410000       0.14950000
   139  H          0.01130000       0.25910000       0.92430000
   140  H          0.98870000       0.74090000       0.07570000
   141  H         -0.00620000       0.36160000       0.97020000
   142  H          0.00620000       0.63840000       0.02980000
