data_UJIBEU
_symmetry_space_group_name_H-M    'P1'
_symmetry_Int_Tables_number       1
loop_
_symmetry_equiv_pos_site_id
_symmetry_equiv_pos_as_xyz
1 x,y,z
_cell_length_a                   21.25094
_cell_length_b                   14.53602
_cell_length_c                   7.153901
_cell_angle_alpha                90.0
_cell_angle_beta                 90.0
_cell_angle_gamma                90.0
loop_
_atom_site_label
_atom_site_type_symbol
_atom_site_fract_x
_atom_site_fract_y
_atom_site_fract_z
     1  Cl         0.61621400       0.62721500       0.52685120
     2  Cl         0.38378600       0.37278500       0.02685120
     3  Cl         0.11621400       0.87278500       0.52685120
     4  Cl         0.88378600       0.12721500       0.02685120
     5  C          0.68929130       0.76027190       0.06425000
     6  C          0.31070870       0.23972810       0.56425000
     7  C          0.18929130       0.73972810       0.06425000
     8  C          0.81070870       0.26027190       0.56425000
     9  H          0.69840000       0.76210000       0.19990000
    10  H          0.30160000       0.23790000       0.69990000
    11  H          0.19840000       0.73790000       0.19990000
    12  H          0.80160000       0.26210000       0.69990000
    13  H          0.72990000       0.76400000      -0.00320000
    14  H          0.27010000       0.23600000       0.49680000
    15  H          0.22990000       0.73600000      -0.00320000
    16  H          0.77010000       0.26400000       0.49680000
    17  C          0.65777140       0.66929190       0.01765000
    18  C          0.34222860       0.33070810       0.51765000
    19  C          0.15777140       0.83070810       0.01765000
    20  C          0.84222860       0.16929190       0.51765000
    21  H          0.65300000       0.66390000       0.88040000
    22  H          0.34700000       0.33610000       0.38040000
    23  H          0.15300000       0.83610000       0.88040000
    24  H          0.84700000       0.16390000       0.38040000
    25  H          0.68470000       0.61800000       0.06070000
    26  H          0.31530000       0.38200000       0.56070000
    27  H          0.18470000       0.88200000       0.06070000
    28  H          0.81530000       0.11800000       0.56070000
    29  C          0.56366140       0.57391190       0.05675000
    30  C          0.43633860       0.42608810       0.55675000
    31  C          0.06366140       0.92608810       0.05675000
    32  C          0.93633860       0.07391190       0.55675000
    33  H          0.58880000       0.52160000       0.10460000
    34  H          0.41120000       0.47840000       0.60460000
    35  H          0.08880000       0.97840000       0.10460000
    36  H          0.91120000       0.02160000       0.60460000
    37  H          0.56120000       0.56850000       0.91890000
    38  H          0.43880000       0.43150000       0.41890000
    39  H          0.06120000       0.93150000       0.91890000
    40  H          0.93880000       0.06850000       0.41890000
    41  C          0.49791140       0.57062000       0.13925000
    42  C          0.50208860       0.42938000       0.63925000
    43  C         -0.00208860       0.92938000       0.13925000
    44  C          0.00208860       0.07062000       0.63925000
    45  H          0.47570000       0.51560000       0.09150000
    46  H          0.52430000       0.48440000       0.59150000
    47  H          0.97570000       0.98440000       0.09150000
    48  H          0.02430000       0.01560000       0.59150000
    49  H          0.50080000       0.56520000       0.27690000
    50  H          0.49920000       0.43480000       0.77690000
    51  H          0.00080000       0.93480000       0.27690000
    52  H         -0.00080000       0.06520000       0.77690000
    53  C          0.44479150       0.66552000       0.89175000
    54  C          0.55520850       0.33448000       0.39175000
    55  C          0.94479150       0.83448000       0.89175000
    56  C          0.05520850       0.16552000       0.39175000
    57  H          0.39850000       0.66100000       0.87770000
    58  H          0.60150000       0.33900000       0.37770000
    59  H          0.89850000       0.83900000       0.87770000
    60  H          0.10150000       0.16100000       0.37770000
    61  H          0.46420000       0.61590000       0.81670000
    62  H          0.53580000       0.38410000       0.31670000
    63  H          0.96420000       0.88410000       0.81670000
    64  H          0.03580000       0.11590000       0.31670000
    65  C          0.46710140       0.75872000       0.81926000
    66  C          0.53289860       0.24128000       0.31926000
    67  C          0.96710140       0.74128000       0.81926000
    68  C          0.03289860       0.25872000       0.31926000
    69  H          0.45250000       0.76730000       0.68910000
    70  H          0.54750000       0.23270000       0.18910000
    71  H          0.95250000       0.73270000       0.68910000
    72  H          0.04750000       0.26730000       0.18910000
    73  H          0.44880000       0.80840000       0.89670000
    74  H          0.55120000       0.19160000       0.39670000
    75  H          0.94880000       0.69160000       0.89670000
    76  H          0.05120000       0.30840000       0.39670000
    77  C          0.56147150       0.85632000       0.79345000
    78  C          0.43852850       0.14368000       0.29345000
    79  C          0.06147150       0.64368000       0.79345000
    80  C          0.93852850       0.35632000       0.29345000
    81  H          0.54280000       0.90030000       0.88350000
    82  H          0.45720000       0.09970000       0.38350000
    83  H          0.04280000       0.59970000       0.88350000
    84  H          0.95720000       0.40030000       0.38350000
    85  H          0.55080000       0.87710000       0.66560000
    86  H          0.44920000       0.12290000       0.16560000
    87  H          0.05080000       0.62290000       0.66560000
    88  H          0.94920000       0.37710000       0.16560000
    89  C          0.63249160       0.85452000       0.81695000
    90  C          0.36750840       0.14548000       0.31695000
    91  C          0.13249160       0.64548000       0.81695000
    92  C          0.86750840       0.35452000       0.31695000
    93  H          0.65030000       0.80430000       0.74010000
    94  H          0.34970000       0.19570000       0.24010000
    95  H          0.15030000       0.69570000       0.74010000
    96  H          0.84970000       0.30430000       0.24010000
    97  H          0.65040000       0.91330000       0.77180000
    98  H          0.34960000       0.08670000       0.27180000
    99  H          0.15040000       0.58670000       0.77180000
   100  H          0.84960000       0.41330000       0.27180000
   101  C          0.66702140       0.92142000       0.11884000
   102  C          0.33297860       0.07858000       0.61884000
   103  C          0.16702140       0.57858000       0.11884000
   104  C          0.83297860       0.42142000       0.61884000
   105  C          0.63579160       0.93812000       0.28515000
   106  C          0.36420840       0.06188000       0.78515000
   107  C          0.13579160       0.56188000       0.28515000
   108  C          0.86420840       0.43812000       0.78515000
   109  H          0.60430000       0.89620000       0.32560000
   110  H          0.39570000       0.10380000       0.82560000
   111  H          0.10430000       0.60380000       0.32560000
   112  H          0.89570000       0.39620000       0.82560000
   113  C          0.64938160       0.01462000       0.39415000
   114  C          0.35061840       0.98538000       0.89415000
   115  C          0.14938160       0.48538000       0.39415000
   116  C          0.85061840       0.51462000       0.89415000
   117  H          0.62790000       0.02390000       0.50900000
   118  H          0.37210000       0.97610000       0.00900000
   119  H          0.12790000       0.47610000       0.50900000
   120  H          0.87210000       0.52390000       0.00900000
   121  C          0.69445150       0.07782000       0.33515000
   122  C          0.30554850       0.92218000       0.83515000
   123  C          0.19445150       0.42218000       0.33515000
   124  C          0.80554850       0.57782000       0.83515000
   125  H          0.70350000       0.13050000       0.40880000
   126  H          0.29650000       0.86950000       0.90880000
   127  H          0.20350000       0.36950000       0.40880000
   128  H          0.79650000       0.63050000       0.90880000
   129  C          0.72562160       0.06362000       0.17085000
   130  C          0.27437840       0.93638000       0.67085000
   131  C          0.22562160       0.43638000       0.17085000
   132  C          0.77437840       0.56362000       0.67085000
   133  H          0.75640000       0.10630000       0.12960000
   134  H          0.24360000       0.89370000       0.62960000
   135  H          0.25640000       0.39370000       0.12960000
   136  H          0.74360000       0.60630000       0.62960000
   137  C          0.71212140       0.98652000       0.06464000
   138  C          0.28787860       0.01348000       0.56464000
   139  C          0.21212140       0.51348000       0.06464000
   140  C          0.78787860       0.48652000       0.56464000
   141  C          0.41075140       0.67032000       0.21664000
   142  C          0.58924860       0.32968000       0.71664000
   143  C          0.91075140       0.82968000       0.21664000
   144  C          0.08924860       0.17032000       0.71664000
   145  C          0.36352150       0.60592000       0.25305000
   146  C          0.63647850       0.39408000       0.75305000
   147  C          0.86352150       0.89408000       0.25305000
   148  C          0.13647850       0.10592000       0.75305000
   149  H          0.36500000       0.54740000       0.19370000
   150  H          0.63500000       0.45260000       0.69370000
   151  H          0.86500000       0.95260000       0.19370000
   152  H          0.13500000       0.04740000       0.69370000
   153  C          0.31479150       0.62582000       0.37345000
   154  C          0.68520850       0.37418000       0.87345000
   155  C          0.81479150       0.87418000       0.37345000
   156  C          0.18520850       0.12582000       0.87345000
   157  H          0.28480000       0.57960000       0.40250000
   158  H          0.71520000       0.42040000       0.90250000
   159  H          0.78480000       0.92040000       0.40250000
   160  H          0.21520000       0.07960000       0.90250000
   161  C          0.30903160       0.71252000       0.45275000
   162  C          0.69096840       0.28748000       0.95275000
   163  C          0.80903160       0.78748000       0.45275000
   164  C          0.19096840       0.21252000       0.95275000
   165  H          0.27430000       0.72620000       0.53170000
   166  H          0.72570000       0.27380000       0.03170000
   167  H          0.77430000       0.77380000       0.53170000
   168  H          0.22570000       0.22620000       0.03170000
   169  C          0.35392150       0.77882000       0.41655000
   170  C          0.64607850       0.22118000       0.91655000
   171  C          0.85392150       0.72118000       0.41655000
   172  C          0.14607850       0.27882000       0.91655000
   173  H          0.35010000       0.83880000       0.46810000
   174  H          0.64990000       0.16120000       0.96810000
   175  H          0.85010000       0.66120000       0.46810000
   176  H          0.14990000       0.33880000       0.96810000
   177  C          0.40457150       0.75632000       0.30344000
   178  C          0.59542850       0.24368000       0.80344000
   179  C          0.90457150       0.74368000       0.30344000
   180  C          0.09542850       0.25632000       0.80344000
   181  N          0.65058120       0.84054150       0.01454000
   182  N          0.34941880       0.15945850       0.51454000
   183  N          0.15058120       0.65945850       0.01454000
   184  N          0.84941880       0.34054150       0.51454000
   185  N          0.59482120       0.66213170       0.10784000
   186  N          0.40517880       0.33786830       0.60784000
   187  N          0.09482120       0.83786830       0.10784000
   188  N          0.90517880       0.16213170       0.60784000
   189  N          0.46183120       0.65330170       0.09103000
   190  N          0.53816880       0.34669830       0.59103000
   191  N          0.96183120       0.84669830       0.09103000
   192  N          0.03816880       0.15330170       0.59103000
   193  N          0.53529120       0.76409180       0.82536000
   194  N          0.46470880       0.23590820       0.32536000
   195  N          0.03529120       0.73590820       0.82536000
   196  N          0.96470880       0.26409180       0.32536000
   197  N          0.74766130       0.97532000       0.88916000
   198  N          0.25233870       0.02468000       0.38916000
   199  N          0.24766130       0.52468000       0.88916000
   200  N          0.75233870       0.47532000       0.38916000
   201  N          0.45504130       0.82492000       0.28894000
   202  N          0.54495870       0.17508000       0.78894000
   203  N          0.95504130       0.67508000       0.28894000
   204  N          0.04495870       0.32492000       0.78894000
   205  O          0.74845120       0.04151170       0.78237000
   206  O          0.25154880       0.95848830       0.28237000
   207  O          0.24845120       0.45848830       0.78237000
   208  O          0.75154880       0.54151170       0.28237000
   209  O          0.77464110       0.90206180       0.85996000
   210  O          0.22535890       0.09793820       0.35996000
   211  O          0.27464110       0.59793820       0.85996000
   212  O          0.72535890       0.40206180       0.35996000
   213  O          0.44037120       0.90439160       0.25354000
   214  O          0.55962880       0.09560840       0.75354000
   215  O          0.94037120       0.59560840       0.25354000
   216  O          0.05962880       0.40439160       0.75354000
   217  O          0.50863110       0.79977160       0.32264000
   218  O          0.49136890       0.20022840       0.82264000
   219  O          0.00863110       0.70022840       0.32264000
   220  O          0.99136890       0.29977160       0.82264000
   221  H          0.57031400       0.70041900       0.06050000
   222  H          0.42968600       0.29958100       0.56050000
   223  H          0.07031400       0.79958100       0.06050000
   224  H          0.92968600       0.20041900       0.56050000
   225  H          0.54921400       0.72781800       0.73960000
   226  H          0.45078600       0.27218200       0.23960000
   227  H          0.04921400       0.77218200       0.73960000
   228  H          0.95078600       0.22781800       0.23960000
