data_UJIVAK
_symmetry_space_group_name_H-M    'P1'
_symmetry_Int_Tables_number       1
loop_
_symmetry_equiv_pos_site_id
_symmetry_equiv_pos_as_xyz
1 x,y,z
_cell_length_a                   8.02405
_cell_length_b                   10.90677
_cell_length_c                   13.9801
_cell_angle_alpha                90.0
_cell_angle_beta                 96.5693
_cell_angle_gamma                90.0
loop_
_atom_site_label
_atom_site_type_symbol
_atom_site_fract_x
_atom_site_fract_y
_atom_site_fract_z
     1  I          0.22261200       0.49810000       0.22996100
     2  I          0.77738800      -0.00190000       0.77003900
     3  C          0.31265000       0.50410000       0.01343000
     4  C          0.68735000       0.00410000       0.98657000
     5  C          0.27124000       0.50110000       0.09222000
     6  C          0.72876000       0.00110000       0.90778000
     7  C          0.46904000       0.55910000       0.27723000
     8  C          0.53096000       0.05910000       0.72277000
     9  C          0.50855000       0.67910000       0.25893000
    10  C          0.49145000       0.17910000       0.74107000
    11  C          0.67285000       0.71610000       0.28483000
    12  C          0.32715000       0.21610000       0.71517000
    13  C          0.79165000       0.63410000       0.32623000
    14  C          0.20835000       0.13410000       0.67377000
    15  C          0.74815000       0.51210000       0.34353000
    16  C          0.25185000       0.01210000       0.65647000
    17  C          0.58365000       0.47410000       0.31883000
    18  C          0.41635000       0.97410000       0.68117000
    19  H          0.34760000       0.51270000       0.95440000
    20  H          0.65240000       0.01270000       0.04560000
    21  H          0.42630000       0.73570000       0.22970000
    22  H          0.57370000       0.23570000       0.77030000
    23  H          0.70420000       0.79970000       0.27410000
    24  H          0.29580000       0.29970000       0.72590000
    25  H          0.90390000       0.66170000       0.34300000
    26  H          0.09610000       0.16170000       0.65700000
    27  H          0.83020000       0.45740000       0.37180000
    28  H          0.16980000       0.95740000       0.62820000
    29  H          0.55070000       0.39340000       0.33020000
    30  H          0.44930000       0.89340000       0.66980000
    31  F          0.60934000       0.50810000       0.84002000
    32  F          0.39066000       0.00810000       0.15998000
    33  F          0.33654000       0.53810000       0.78742000
    34  F          0.66346000       0.03810000       0.21258000
    35  F          0.53374000       0.53310000       0.68282000
    36  F          0.46626000       0.03310000       0.31718000
    37  F          0.52446000       0.69310000       0.78245000
    38  F          0.47554000       0.19310000       0.21755000
    39  B          0.50066000       0.56810000       0.77184000
    40  B          0.49934000       0.06810000       0.22816000
    41  O          0.19194000       0.70310000       0.42372000
    42  O          0.80806000       0.20310000       0.57628000
    43  O          0.22524000       0.44210000       0.43422000
    44  O          0.77476000       0.94210000       0.56578000
    45  O          0.01554000       0.28710000       0.30992000
    46  O         -0.01554000       0.78710000       0.69008000
    47  O          0.91246000       0.40210000       0.12712000
    48  O          0.08754000       0.90210000       0.87288000
    49  O          0.91996000       0.66110000       0.11282000
    50  O          0.08004000       0.16110000       0.88718000
    51  O          0.12933000       0.80410000       0.24182000
    52  O          0.87067000       0.30410000       0.75818000
    53  C          0.29785000       0.64210000       0.49753000
    54  C          0.70215000       0.14210000       0.50247000
    55  C          0.22356000       0.52010000       0.51633000
    56  C          0.77644000       0.02010000       0.48367000
    57  C          0.18166000       0.32010000       0.45913000
    58  C          0.81834000       0.82010000       0.54087000
    59  C          0.15545000       0.24110000       0.37083000
    60  C          0.84455000       0.74110000       0.62917000
    61  C         -0.01605000       0.22210000       0.22093000
    62  C          0.01605000       0.72210000       0.77907000
    63  C          0.84915000       0.28710000       0.15813000
    64  C          0.15085000       0.78710000       0.84187000
    65  C          0.78125000       0.47110000       0.07553000
    66  C          0.21875000       0.97110000       0.92447000
    67  C          0.85445000       0.58510000       0.03513000
    68  C          0.14555000       0.08510000       0.96487000
    69  C          0.00765000       0.76510000       0.08193000
    70  C         -0.00765000       0.26510000       0.91807000
    71  C          0.02885000       0.85710000       0.16193000
    72  C          0.97115000       0.35710000       0.83807000
    73  C          0.13295000       0.87810000       0.32533000
    74  C          0.86705000       0.37810000       0.67467000
    75  C          0.24975000       0.82210000       0.40473000
    76  C          0.75025000       0.32210000       0.59527000
    77  H          0.40590000       0.63250000       0.47740000
    78  H          0.59410000       0.13250000       0.52260000
    79  H          0.30690000       0.69150000       0.55460000
    80  H          0.69310000       0.19150000       0.44540000
    81  H          0.11100000       0.53260000       0.52970000
    82  H          0.88900000       0.03260000       0.47030000
    83  H          0.28710000       0.48460000       0.57020000
    84  H          0.71290000       0.98460000       0.42980000
    85  H          0.26950000       0.28800000       0.50260000
    86  H          0.73050000       0.78800000       0.49740000
    87  H          0.08110000       0.32350000       0.48900000
    88  H          0.91890000       0.82350000       0.51100000
    89  H          0.13370000       0.15990000       0.38880000
    90  H          0.86630000       0.65990000       0.61120000
    91  H          0.25280000       0.24380000       0.33800000
    92  H          0.74720000       0.74380000       0.66200000
    93  H          0.08340000       0.22020000       0.19000000
    94  H          0.91660000       0.72020000       0.81000000
    95  H          0.94870000       0.14190000       0.23290000
    96  H          0.05130000       0.64190000       0.76710000
    97  H          0.75660000       0.30300000       0.19320000
    98  H          0.24340000       0.80300000       0.80680000
    99  H          0.81400000       0.23920000       0.10340000
   100  H          0.18600000       0.73920000       0.89660000
   101  H          0.72740000       0.42480000       0.02430000
   102  H          0.27260000       0.92480000       0.97570000
   103  H          0.70190000       0.49570000       0.11770000
   104  H          0.29810000      -0.00430000       0.88230000
   105  H          0.76950000       0.62940000      -0.00440000
   106  H          0.23050000       0.12940000       0.00440000
   107  H          0.94170000       0.56420000      -0.00210000
   108  H          0.05830000       0.06420000       0.00210000
   109  H          0.11460000       0.74240000       0.06580000
   110  H          0.88540000       0.24240000       0.93420000
   111  H          0.94490000       0.80230000       0.02700000
   112  H          0.05510000       0.30230000       0.97300000
   113  H          0.92210000       0.88000000       0.18010000
   114  H          0.07790000       0.38000000       0.81990000
   115  H          0.08260000       0.92980000       0.14130000
   116  H          0.91740000       0.42980000       0.85870000
   117  H          0.17090000       0.95920000       0.31140000
   118  H          0.82910000       0.45920000       0.68860000
   119  H          0.02340000       0.88450000       0.34450000
   120  H          0.97660000       0.38450000       0.65550000
   121  H          0.25180000       0.87280000       0.46100000
   122  H          0.74820000       0.37280000       0.53900000
   123  H          0.35950000       0.81910000       0.38580000
   124  H          0.64050000       0.31910000       0.61420000
