data_UJOMEM
_symmetry_space_group_name_H-M    'P1'
_symmetry_Int_Tables_number       1
loop_
_symmetry_equiv_pos_site_id
_symmetry_equiv_pos_as_xyz
1 x,y,z
_cell_length_a                   7.70932
_cell_length_b                   8.87423
_cell_length_c                   13.30544
_cell_angle_alpha                71.6033
_cell_angle_beta                 76.7073
_cell_angle_gamma                70.9153
loop_
_atom_site_label
_atom_site_type_symbol
_atom_site_fract_x
_atom_site_fract_y
_atom_site_fract_z
     1  I          0.14135300       0.13349300       0.36000018
     2  I          0.85864700       0.86650700       0.63999982
     3  I          0.23155300       0.21916300       0.08793200
     4  I          0.76844700       0.78083700       0.91206800
     5  I          0.29081300       0.26734300       0.86987200
     6  I          0.70918700       0.73265700       0.13012800
     7  I          0.34412300       0.30279300       0.58935617
     8  I          0.65587700       0.69720700       0.41064383
     9  N          0.34035000       0.87074000       0.62113000
    10  N          0.65965000       0.12926000       0.37887000
    11  H          0.22570000       0.89060000       0.61340000
    12  H          0.77430000       0.10940000       0.38660000
    13  H          0.41860000       0.82950000       0.57140000
    14  H          0.58140000       0.17050000       0.42860000
    15  H          0.36460000       0.96660000       0.61940000
    16  H          0.63540000       0.03340000       0.38060000
    17  C          0.36875000       0.74824000       0.72813000
    18  C          0.63125000       0.25176000       0.27187000
    19  H          0.31500000       0.65950000       0.73620000
    20  H          0.68500000       0.34050000       0.26380000
    21  H          0.50040000       0.70060000       0.73180000
    22  H          0.49960000       0.29940000       0.26820000
    23  C          0.27975000       0.83114000       0.81703000
    24  C          0.72025000       0.16886000       0.18297000
    25  H          0.15070000       0.88760000       0.80900000
    26  H          0.84930000       0.11240000       0.19100000
    27  H          0.34120000       0.91300000       0.81230000
    28  H          0.65880000       0.08700000       0.18770000
    29  C          0.29095000       0.70664000       0.92673000
    30  C          0.70905000       0.29336000       0.07327000
    31  H          0.21810000       0.63190000       0.93410000
    32  H          0.78190000       0.36810000       0.06590000
    33  H          0.41870000       0.64160000       0.93140000
    34  H          0.58130000       0.35840000       0.06860000
    35  C          0.22045000       0.79004000       0.01803000
    36  C          0.77955000       0.20996000       0.98197000
    37  H          0.09150000       0.85230000       0.01470000
    38  H          0.90850000       0.14770000       0.98530000
    39  H          0.29080000       0.86710000       0.00950000
    40  H          0.70920000       0.13290000      -0.00950000
    41  C          0.23725000       0.66544000       0.12753000
    42  C          0.76275000       0.33456000       0.87247000
    43  H          0.16610000       0.58880000       0.13610000
    44  H          0.83390000       0.41120000       0.86390000
    45  H          0.36600000       0.60250000       0.13060000
    46  H          0.63400000       0.39750000       0.86940000
    47  C          0.16845000       0.74764000       0.21933000
    48  C          0.83155000       0.25236000       0.78067000
    49  H          0.22670000       0.83510000       0.20630000
    50  H          0.77330000       0.16490000       0.79370000
    51  H          0.03540000       0.79650000       0.22360000
    52  H          0.96460000       0.20350000       0.77640000
    53  C          0.21395000       0.62174000       0.32433000
    54  C          0.78605000       0.37826000       0.67567000
    55  H          0.16290000       0.53050000       0.33470000
    56  H          0.83710000       0.46950000       0.66530000
    57  H          0.34740000       0.57810000       0.32140000
    58  H          0.65260000       0.42190000       0.67860000
    59  N          0.13615000       0.69794000       0.41673000
    60  N          0.86385000       0.30206000       0.58327000
    61  H          0.16960000       0.79460000       0.40140000
    62  H          0.83040000       0.20540000       0.59860000
    63  H          0.19870000       0.61870000       0.47650000
    64  H          0.80130000       0.38130000       0.52350000
    65  H          0.01870000       0.71960000       0.43240000
    66  H          0.98130000       0.28040000       0.56760000
