data_UJOXOI
_symmetry_space_group_name_H-M    'P1'
_symmetry_Int_Tables_number       1
loop_
_symmetry_equiv_pos_site_id
_symmetry_equiv_pos_as_xyz
1 x,y,z
_cell_length_a                   8.042717
_cell_length_b                   10.3432
_cell_length_c                   11.0072
_cell_angle_alpha                104.4692
_cell_angle_beta                 95.1202
_cell_angle_gamma                102.8512
loop_
_atom_site_label
_atom_site_type_symbol
_atom_site_fract_x
_atom_site_fract_y
_atom_site_fract_z
     1  C          0.11452000       0.84329810       0.94776850
     2  C          0.88548000       0.15670190       0.05223150
     3  C          0.23092000       0.97046810       0.97440840
     4  C          0.76908000       0.02953190       0.02559160
     5  H          0.26770000       0.00710000       0.90750000
     6  H          0.73230000      -0.00710000       0.09250000
     7  C          0.29392000       0.04468180       0.10043160
     8  C          0.70608000       0.95531820       0.89956840
     9  C          0.23822000      -0.01088180       0.19817150
    10  C          0.76178000       0.01088180       0.80182850
    11  C          0.11532000       0.86223820       0.16872150
    12  C          0.88468000       0.13776180       0.83127850
    13  H          0.07460000       0.82690000       0.23530000
    14  H          0.92540000       0.17310000       0.76470000
    15  C          0.05212000       0.78714820       0.04302160
    16  C          0.94788000       0.21285180       0.95697840
    17  C          0.30882000       0.06338170       0.33278150
    18  C          0.69118000       0.93661830       0.66721850
    19  C          0.50032000       0.10333170       0.36973150
    20  C          0.49968000       0.89666830       0.63026850
    21  C          0.57362000       0.19577170       0.50147150
    22  C          0.42638000       0.80422830       0.49852850
    23  C          0.47132000       0.21563170       0.59112150
    24  C          0.52868000       0.78436830       0.40887850
    25  C          0.27982000       0.15131170       0.55889160
    26  C          0.72018000       0.84868830       0.44110840
    27  C          0.20902000       0.08304180       0.42447160
    28  C          0.79098000       0.91695820       0.57552840
    29  H          0.08720000       0.05130000       0.40110000
    30  H          0.91280000       0.94870000       0.59890000
    31  C          0.45683000       0.23622000       0.04085190
    32  C          0.54317000       0.76378000       0.95914810
    33  H          0.51710000       0.17970000       0.98450000
    34  H          0.48290000       0.82030000       0.01550000
    35  H          0.53380000       0.32820000       0.08010000
    36  H          0.46620000       0.67180000       0.91990000
    37  H          0.35400000       0.24450000      -0.00840000
    38  H          0.64600000       0.75550000       0.00840000
    39  C          0.88677000       0.59648000       0.10228190
    40  C          0.11323000       0.40352000       0.89771810
    41  H          0.80680000       0.50570000       0.06300000
    42  H          0.19320000       0.49430000       0.93700000
    43  H          0.83050000       0.65370000       0.16160000
    44  H          0.16950000       0.34630000       0.83840000
    45  H         -0.00970000       0.58520000       0.14830000
    46  H          0.00970000       0.41480000       0.85170000
    47  C          0.53792000       0.29235190       0.72153160
    48  C          0.46208000       0.70764810       0.27846840
    49  C          0.75872000       0.24907190       0.52856160
    50  C          0.24128000       0.75092810       0.47143840
    51  N          0.90502000       0.29092000       0.55007170
    52  N          0.09498000       0.70908000       0.44992830
    53  N          0.59152000       0.35262190       0.82435150
    54  N          0.40848000       0.64737810       0.17564850
    55  O          0.93463840       0.66211870       0.00550120
    56  O          0.06536160       0.33788130      -0.00550120
    57  O          0.40645180       0.17220130       0.13801120
    58  O          0.59354820       0.82779870       0.86198880
    59  O          0.59685170       0.05565140       0.30356120
    60  O          0.40314830       0.94434860       0.69643880
    61  O          0.19158160       0.15713140       0.64297120
    62  O          0.80841840       0.84286860       0.35702880
    63  Br         0.04198300       0.73996800       0.77571800
    64  Br         0.95801700       0.26003200       0.22428200
    65  C          0.32122000       0.45790190       0.48189190
    66  C          0.67878000       0.54209810       0.51810810
    67  H          0.19880000       0.42920000       0.46990000
    68  H          0.80120000       0.57080000       0.53010000
    69  C          0.40793000       0.43078190       0.37931180
    70  C          0.59207000       0.56921810       0.62068820
    71  H          0.34540000       0.38360000       0.29690000
    72  H          0.65460000       0.61640000       0.70310000
    73  C          0.58763000       0.47312000       0.39738180
    74  C          0.41237000       0.52688000       0.60261820
    75  H          0.64780000       0.45470000       0.32710000
    76  H          0.35220000       0.54530000       0.67290000
