data_UJUPAQ
_symmetry_space_group_name_H-M    'P1'
_symmetry_Int_Tables_number       1
loop_
_symmetry_equiv_pos_site_id
_symmetry_equiv_pos_as_xyz
1 x,y,z
_cell_length_a                   5.1616
_cell_length_b                   8.89281
_cell_length_c                   17.0132
_cell_angle_alpha                101.7233
_cell_angle_beta                 95.5243
_cell_angle_gamma                95.9473
loop_
_atom_site_label
_atom_site_type_symbol
_atom_site_fract_x
_atom_site_fract_y
_atom_site_fract_z
     1  C          0.90797000       0.44074000       0.48632000
     2  C          0.09203000       0.55926000       0.51368000
     3  H          0.72910000       0.45810000       0.48460000
     4  H          0.27090000       0.54190000       0.51540000
     5  C         -0.02862000       0.28054000       0.45782000
     6  C          0.02862000       0.71946000       0.54218000
     7  O          0.19855000       0.25043000       0.45225160
     8  O          0.80145000       0.74957000       0.54774840
     9  N          0.75986000       0.17243000       0.43802190
    10  N          0.24014000       0.82757000       0.56197810
    11  H          0.60400000       0.20270000       0.44280000
    12  H          0.39600000       0.79730000       0.55720000
    13  C          0.77417000       0.00794000       0.40922000
    14  C          0.22583000      -0.00794000       0.59078000
    15  H          0.72370000       0.95190000       0.45120000
    16  H          0.27630000       0.04810000       0.54880000
    17  H          0.95790000      -0.00700000       0.40100000
    18  H          0.04210000       0.00700000       0.59900000
    19  C          0.59737000       0.93734000       0.33022000
    20  C          0.40263000       0.06266000       0.66978000
    21  H          0.41550000       0.95950000       0.33970000
    22  H          0.58450000       0.04050000       0.66030000
    23  C          0.66338000       0.00414000       0.25772000
    24  C          0.33662000      -0.00414000       0.74228000
    25  C          0.89808000       0.09544000       0.25523000
    26  C          0.10192000       0.90456000       0.74477000
    27  H          0.02750000       0.11970000       0.30100000
    28  H         -0.02750000       0.88030000       0.69900000
    29  C          0.94448000       0.15064000       0.18723000
    30  C          0.05552000       0.84936000       0.81277000
    31  H          0.10470000       0.21340000       0.18700000
    32  H          0.89530000       0.78660000       0.81300000
    33  C          0.76169000       0.11595000       0.11963000
    34  C          0.23831000       0.88405000       0.88037000
    35  H          0.79560000       0.15360000       0.07270000
    36  H          0.20440000       0.84640000       0.92730000
    37  C          0.52619000       0.02465000       0.12083000
    38  C          0.47381000       0.97535000       0.87917000
    39  H          0.39690000       0.00130000       0.07490000
    40  H          0.60310000      -0.00130000       0.92510000
    41  C          0.48138000       0.96874000       0.18823000
    42  C          0.51862000       0.03126000       0.81177000
    43  H          0.32230000       0.90410000       0.18770000
    44  H          0.67770000       0.09590000       0.81230000
    45  C          0.59117000       0.76254000       0.31322000
    46  C          0.40883000       0.23746000       0.68678000
    47  C          0.76518000       0.68784000       0.26733000
    48  C          0.23482000       0.31216000       0.73267000
    49  H          0.89010000       0.74640000       0.24430000
    50  H          0.10990000       0.25360000       0.75570000
    51  C          0.75998000       0.52814000       0.25433000
    52  C          0.24002000       0.47186000       0.74567000
    53  H          0.88140000       0.47860000       0.22260000
    54  H          0.11860000       0.52140000       0.77740000
    55  C          0.58008000       0.44114000       0.28683000
    56  C          0.41992000       0.55886000       0.71317000
    57  H          0.57720000       0.33200000       0.27810000
    58  H          0.42280000       0.66800000       0.72190000
    59  C          0.40418000       0.51385000       0.33223000
    60  C          0.59582000       0.48615000       0.66777000
    61  H          0.27700000       0.45440000       0.35400000
    62  H          0.72300000       0.54560000       0.64600000
    63  C          0.41168000       0.67404000       0.34622000
    64  C          0.58832000       0.32596000       0.65378000
    65  H          0.29230000       0.72330000       0.37890000
    66  H          0.70770000       0.27670000       0.62110000
    67  C          0.91371900       0.52571100       0.00808000
    68  C          0.08628100       0.47428900      -0.00808000
    69  H          0.81710000       0.46100000       0.04010000
    70  H          0.18290000       0.53900000       0.95990000
    71  Cl         0.88412000       0.72332140       0.04752800
    72  Cl         0.11588000       0.27667860       0.95247200
    73  Cl         0.72382000       0.48111160       0.89457200
    74  Cl         0.27618000       0.51888840       0.10542800
