data_UJUWII
_symmetry_space_group_name_H-M    'P1'
_symmetry_Int_Tables_number       1
loop_
_symmetry_equiv_pos_site_id
_symmetry_equiv_pos_as_xyz
1 x,y,z
_cell_length_a                   7.8423
_cell_length_b                   17.1476
_cell_length_c                   19.4137
_cell_angle_alpha                90.0
_cell_angle_beta                 90.0
_cell_angle_gamma                90.0
loop_
_atom_site_label
_atom_site_type_symbol
_atom_site_fract_x
_atom_site_fract_y
_atom_site_fract_z
     1  P          0.45310150       0.31190600       0.31529600
     2  P          0.04689850       0.68809400       0.81529600
     3  P          0.54689850       0.81190600       0.18470400
     4  P          0.95310150       0.18809400       0.68470400
     5  C          0.15226000       0.30513000       0.39223000
     6  C          0.34774000       0.69487000       0.89223000
     7  C          0.84774000       0.80513000       0.10777000
     8  C          0.65226000       0.19487000       0.60777000
     9  H          0.09076100       0.33776000       0.36063500
    10  H          0.40923900       0.66224000       0.86063500
    11  H          0.90923900       0.83776000       0.13936500
    12  H          0.59076100       0.16224000       0.63936500
    13  H          0.09833900       0.30681800       0.43656400
    14  H          0.40166100       0.69318200       0.93656400
    15  H          0.90166100       0.80681800       0.06343600
    16  H          0.59833900       0.19318200       0.56343600
    17  H          0.15226700       0.25239800       0.37543800
    18  H          0.34773300       0.74760200       0.87543800
    19  H          0.84773300       0.75239800       0.12456200
    20  H          0.65226700       0.24760200       0.62456200
    21  C          0.33606000       0.33422000       0.39842000
    22  C          0.16394000       0.66578000       0.89842000
    23  C          0.66394000       0.83422000       0.10158000
    24  C          0.83606000       0.16578000       0.60158000
    25  C          0.42447000       0.28862000       0.45712000
    26  C          0.07553000       0.71138000       0.95712000
    27  C          0.57553000       0.78862000       0.04288000
    28  C          0.92447000       0.21138000       0.54288000
    29  H          0.40683500       0.23372100       0.45047900
    30  H          0.09316500       0.76627900       0.95047900
    31  H          0.59316500       0.73372100       0.04952100
    32  H          0.90683500       0.26627900       0.54952100
    33  H          0.37683800       0.30414700       0.50052800
    34  H          0.12316200       0.69585300       0.00052800
    35  H          0.62316200       0.80414700      -0.00052800
    36  H          0.87683800       0.19585300       0.49947200
    37  H          0.54435600       0.29971300       0.45662800
    38  H          0.95564400       0.70028700       0.95662800
    39  H          0.45564400       0.79971300       0.04337200
    40  H          0.04435600       0.20028700       0.54337200
    41  O          0.27514000       0.45938170       0.30366150
    42  O          0.22486000       0.54061830       0.80366150
    43  O          0.72486000       0.95938170       0.19633850
    44  O          0.77514000       0.04061830       0.69633850
    45  C          0.34486000       0.42232000       0.41842000
    46  C          0.15514000       0.57768000       0.91842000
    47  C          0.65514000       0.92232000       0.08158000
    48  C          0.84486000       0.07768000       0.58158000
    49  H          0.46000900       0.43169400       0.43606900
    50  H          0.03999100       0.56830600       0.93606900
    51  H          0.53999100       0.93169400       0.06393100
    52  H          0.96000900       0.06830600       0.56393100
    53  C          0.31706000       0.47953000       0.36052000
    54  C          0.18294000       0.52047000       0.86052000
    55  C          0.68294000       0.97953000       0.13948000
    56  C          0.81706000       0.02047000       0.63948000
    57  C          0.34327000       0.56343000       0.37893000
    58  C          0.15673000       0.43657000       0.87893000
    59  C          0.65673000       0.06343000       0.12107000
    60  C          0.84327000       0.93657000       0.62107000
    61  H          0.31561200       0.59578200       0.33950900
    62  H          0.18438800       0.40421800       0.83950900
    63  H          0.68438800       0.09578200       0.16049100
    64  H          0.81561200       0.90421800       0.66049100
    65  H          0.46218400       0.57189900       0.39033000
    66  H          0.03781600       0.42810100       0.89033000
    67  H          0.53781600       0.07189900       0.10967000
    68  H          0.96218400       0.92810100       0.60967000
    69  C          0.23218000       0.58753000       0.44003000
    70  C          0.26782000       0.41247000       0.94003000
    71  C          0.76782000       0.08753000       0.05997000
    72  C          0.73218000       0.91247000       0.55997000
    73  H          0.11293500       0.58590600       0.42495600
    74  H          0.38706500       0.41409400       0.92495600
    75  H          0.88706500       0.08590600       0.07504400
    76  H          0.61293500       0.91409400       0.57504400
    77  C          0.25198000       0.53023000       0.49843000
    78  C          0.24802000       0.46977000      -0.00157000
    79  C          0.74802000       0.03023000       0.00157000
    80  C          0.75198000       0.96977000       0.50157000
    81  H          0.17237800       0.54353800       0.53477600
    82  H          0.32762200       0.45646200       0.03477600
    83  H          0.82762200       0.04353800       0.96522400
    84  H          0.67237800       0.95646200       0.46522400
    85  H          0.36635300       0.53429900       0.51696700
    86  H          0.13364700       0.46570100       0.01696700
    87  H          0.63364700       0.03429900       0.98303300
    88  H          0.86635300       0.96570100       0.48303300
    89  C          0.22017000       0.44633000       0.47582000
    90  C          0.27983000       0.55367000       0.97582000
    91  C          0.77983000       0.94633000       0.02418000
    92  C          0.72017000       0.05367000       0.52418000
    93  H          0.10389800       0.44127900       0.45928400
    94  H          0.39610200       0.55872100       0.95928400
    95  H          0.89610200       0.94127900       0.04071600
    96  H          0.60389800       0.05872100       0.54071600
    97  H          0.23394500       0.41177100       0.51497500
    98  H          0.26605500       0.58822900       0.01497500
    99  H          0.76605500       0.91177100       0.98502500
   100  H          0.73394500       0.08822900       0.48502500
   101  C          0.27188000       0.67113000       0.46173000
   102  C          0.22812000       0.32887000       0.96173000
   103  C          0.72812000       0.17113000       0.03827000
   104  C          0.77188000       0.82887000       0.53827000
   105  H          0.38719900       0.67407100       0.47793000
   106  H          0.11280100       0.32592900       0.97793000
   107  H          0.61280100       0.17407100       0.02207000
   108  H          0.88719900       0.82592900       0.52207000
   109  H          0.19534800       0.68651400       0.49780500
   110  H          0.30465200       0.31348600      -0.00219500
   111  H          0.80465200       0.18651400       0.00219500
   112  H          0.69534800       0.81348600       0.50219500
   113  H          0.25773000       0.70518700       0.42287500
   114  H          0.24227000       0.29481300       0.92287500
   115  H          0.74227000       0.20518700       0.07712500
   116  H          0.75773000       0.79481300       0.57712500
   117  C          0.32036000       0.28853000       0.24172000
   118  C          0.17964000       0.71147000       0.74172000
   119  C          0.67964000       0.78853000       0.25828000
   120  C          0.82036000       0.21147000       0.75828000
   121  C          0.36968000       0.22763000       0.19993000
   122  C          0.13032000       0.77237000       0.69993000
   123  C          0.63032000       0.72763000       0.30007000
   124  C          0.86968000       0.27237000       0.80007000
   125  H          0.46894000       0.20034400       0.21008100
   126  H          0.03106000       0.79965600       0.71008100
   127  H          0.53106000       0.70034400       0.28991900
   128  H          0.96894000       0.29965600       0.78991900
   129  C          0.27499000       0.20654000       0.14333000
   130  C          0.22501000       0.79346000       0.64333000
   131  C          0.72501000       0.70654000       0.35667000
   132  C          0.77499000       0.29346000       0.85667000
   133  H          0.31125100       0.16531900       0.11582300
   134  H          0.18874900       0.83468100       0.61582300
   135  H          0.68874900       0.66531900       0.38417700
   136  H          0.81125100       0.33468100       0.88417700
   137  C          0.13018000       0.24453000       0.12713000
   138  C          0.36982000       0.75547000       0.62713000
   139  C          0.86982000       0.74453000       0.37287000
   140  C          0.63018000       0.25547000       0.87287000
   141  H          0.06668600       0.22999000       0.08873300
   142  H          0.43331400       0.77001000       0.58873300
   143  H          0.93331400       0.72999000       0.41126700
   144  H          0.56668600       0.27001000       0.91126700
   145  C          0.07838000       0.30413000       0.16753000
   146  C          0.42162000       0.69587000       0.66753000
   147  C          0.92162000       0.80413000       0.33247000
   148  C          0.57838000       0.19587000       0.83247000
   149  H          0.97845000       0.33057800       0.15642100
   150  H          0.52155000       0.66942200       0.65642100
   151  H          0.02155000       0.83057800       0.34357900
   152  H          0.47845000       0.16942200       0.84357900
   153  C          0.16987000       0.32663000       0.22462000
   154  C          0.33013000       0.67337000       0.72462000
   155  C          0.83013000       0.82663000       0.27538000
   156  C          0.66987000       0.17337000       0.77538000
   157  H          0.13078300       0.36744100       0.25189100
   158  H          0.36921700       0.63255900       0.75189100
   159  H          0.86921700       0.86744100       0.24810900
   160  H          0.63078300       0.13255900       0.74810900
   161  C          0.60556000       0.38562000       0.29432000
   162  C          0.89444000       0.61438000       0.79432000
   163  C          0.39444000       0.88562000       0.20568000
   164  C          0.10556000       0.11438000       0.70568000
   165  C          0.62787000       0.41113000       0.22702000
   166  C          0.87213000       0.58887000       0.72702000
   167  C          0.37213000       0.91113000       0.27298000
   168  C          0.12787000       0.08887000       0.77298000
   169  H          0.56103500       0.39075400       0.19175400
   170  H          0.93896500       0.60924600       0.69175400
   171  H          0.43896500       0.89075400       0.30824600
   172  H          0.06103500       0.10924600       0.80824600
   173  C          0.75058000       0.46713000       0.21293000
   174  C          0.74942000       0.53287000       0.71293000
   175  C          0.24942000       0.96713000       0.28707000
   176  C          0.25058000       0.03287000       0.78707000
   177  H          0.76723200       0.48388700       0.16781500
   178  H          0.73276800       0.51611300       0.66781500
   179  H          0.23276800       0.98388700       0.33218500
   180  H          0.26723200       0.01611300       0.83218500
   181  C          0.84628000       0.49763000       0.26454000
   182  C          0.65372000       0.50237000       0.76454000
   183  C          0.15372000      -0.00237000       0.23546000
   184  C          0.34628000       0.00237000       0.73546000
   185  H          0.92600300       0.53610000       0.25441800
   186  H          0.57399700       0.46390000       0.75441800
   187  H          0.07399700       0.03610000       0.24558200
   188  H          0.42600300       0.96390000       0.74558200
   189  C          0.82767000       0.47283000       0.33133000
   190  C          0.67233000       0.52717000       0.83133000
   191  C          0.17233000       0.97283000       0.16867000
   192  C          0.32767000       0.02717000       0.66867000
   193  H          0.89448300       0.49402600       0.36616300
   194  H          0.60551700       0.50597400       0.86616300
   195  H          0.10551700      -0.00597400       0.13383700
   196  H          0.39448300       0.00597400       0.63383700
   197  C          0.70886000       0.41622000       0.34612000
   198  C          0.79114000       0.58378000       0.84612000
   199  C          0.29114000       0.91622000       0.15388000
   200  C          0.20886000       0.08378000       0.65388000
   201  H          0.69732000       0.39822600       0.39100700
   202  H          0.80268000       0.60177400       0.89100700
   203  H          0.30268000       0.89822600       0.10899300
   204  H          0.19732000       0.10177400       0.60899300
   205  C          0.57766000       0.22452000       0.32692000
   206  C          0.92234000       0.77548000       0.82692000
   207  C          0.42234000       0.72452000       0.17308000
   208  C          0.07766000       0.27548000       0.67308000
   209  C          0.50106000       0.15413000       0.34342000
   210  C         -0.00106000       0.84587000       0.84342000
   211  C          0.49894000       0.65413000       0.15658000
   212  C          0.00106000       0.34587000       0.65658000
   213  H          0.38396500       0.15250300       0.35092900
   214  H          0.11603500       0.84749700       0.85092900
   215  H          0.61603500       0.65250300       0.14907100
   216  H          0.88396500       0.34749700       0.64907100
   217  C          0.59457000       0.08683000       0.34883000
   218  C          0.90543000       0.91317000       0.84883000
   219  C          0.40543000       0.58683000       0.15117000
   220  C          0.09457000       0.41317000       0.65117000
   221  H          0.54037100       0.04021200       0.35991700
   222  H          0.95962900       0.95978800       0.85991700
   223  H          0.45962900       0.54021200       0.14008300
   224  H          0.04037100       0.45978800       0.64008300
   225  C          0.76618000       0.08793000       0.33812000
   226  C          0.73382000       0.91207000       0.83812000
   227  C          0.23382000       0.58793000       0.16188000
   228  C          0.26618000       0.41207000       0.66188000
   229  H          0.82931400       0.04223800       0.34230500
   230  H          0.67068600       0.95776200       0.84230500
   231  H          0.17068600       0.54223800       0.15769500
   232  H          0.32931400       0.45776200       0.65769500
   233  C          0.84477000       0.15593000       0.32113000
   234  C          0.65523000       0.84407000       0.82113000
   235  C          0.15523000       0.65593000       0.17887000
   236  C          0.34477000       0.34407000       0.67887000
   237  H          0.96158500       0.15646100       0.31307900
   238  H          0.53841500       0.84353900       0.81307900
   239  H          0.03841500       0.65646100       0.18692100
   240  H          0.46158500       0.34353900       0.68692100
   241  C          0.75256000       0.22413000       0.31573000
   242  C          0.74744000       0.77587000       0.81573000
   243  C          0.24744000       0.72413000       0.18427000
   244  C          0.25256000       0.27587000       0.68427000
   245  H          0.80796200       0.27034900       0.30436500
   246  H          0.69203800       0.72965100       0.80436500
   247  H          0.19203800       0.77034900       0.19563500
   248  H          0.30796200       0.22965100       0.69563500
   249  Cl         0.21282000       0.07175900       0.46182800
   250  Cl         0.28718000       0.92824100       0.96182800
   251  Cl         0.78718000       0.57175900       0.03817200
   252  Cl         0.71282000       0.42824100       0.53817200
   253  Cl         0.28263000       0.89285890       0.47300100
   254  Cl         0.21737000       0.10714110       0.97300100
   255  Cl         0.71737000       0.39285890       0.02699900
   256  Cl         0.78263000       0.60714110       0.52699900
   257  H          0.26970000       0.96958500       0.47630000
   258  H          0.23030000       0.03041500       0.97630000
   259  H          0.73030000       0.46958500       0.02370000
   260  H          0.76970000       0.53041500       0.52370000
