data_UKAKEW
_symmetry_space_group_name_H-M    'P1'
_symmetry_Int_Tables_number       1
loop_
_symmetry_equiv_pos_site_id
_symmetry_equiv_pos_as_xyz
1 x,y,z
_cell_length_a                   12.5873
_cell_length_b                   12.9024
_cell_length_c                   12.9773
_cell_angle_alpha                60.533
_cell_angle_beta                 62.643
_cell_angle_gamma                84.853
loop_
_atom_site_label
_atom_site_type_symbol
_atom_site_fract_x
_atom_site_fract_y
_atom_site_fract_z
     1  Br         0.24637120       0.01654110       0.94052130
     2  Br         0.75362880       0.98345890       0.05947870
     3  Br         0.52070120      -0.00069100       0.65016130
     4  Br         0.47929880       0.00069100       0.34983870
     5  Br         0.73638120       0.21831110       0.25330130
     6  Br         0.26361880       0.78168890       0.74669870
     7  Br         0.47176120       0.33202110       0.17481130
     8  Br         0.52823880       0.66797890       0.82518870
     9  Br         0.78178120       0.54964110       0.97726880
    10  Br         0.21821880       0.45035890       0.02273120
    11  Br         0.21870120       0.08461110       0.62662130
    12  Br         0.78129880       0.91538890       0.37337870
    13  Br         0.01960120       0.33276110       0.63651130
    14  Br         0.98039880       0.66723890       0.36348870
    15  Br         0.45556120       0.15346110       0.02116120
    16  Br         0.54443880       0.84653890       0.97883880
    17  Br         0.27333120       0.59125110       0.17426130
    18  Br         0.72666880       0.40874890       0.82573870
    19  Br         0.75843120       0.15411110       0.73728130
    20  Br         0.24156880       0.84588890       0.26271870
    21  Br         0.02555120       0.63126110       0.65279130
    22  Br         0.97444880       0.36873890       0.34720870
    23  Br         0.01209120       0.31646110       0.94540130
    24  Br         0.98790880       0.68353890       0.05459870
    25  C          0.34209000       0.26329000       0.84821100
    26  C          0.65791000       0.73671000       0.15178900
    27  C          0.33509000       0.18548000       0.79241000
    28  C          0.66491000       0.81452000       0.20759000
    29  C          0.46851000       0.18941000       0.71121100
    30  C          0.53149000       0.81059000       0.28878900
    31  C          0.51809000       0.17448000       0.58971000
    32  C          0.48191000       0.82552000       0.41029000
    33  C          0.64269000       0.25188000       0.48361000
    34  C          0.35731000       0.74812000       0.51639000
    35  C          0.65241000       0.30999000       0.34671100
    36  C          0.34759000       0.69001000       0.65328900
    37  C          0.52159000       0.30559000       0.38041100
    38  C          0.47841000       0.69441000       0.61958900
    39  C          0.47581000       0.39289000       0.28791000
    40  C          0.52419000       0.60711000       0.71209000
    41  C          0.55361000       0.51919000       0.20281200
    42  C          0.44639000       0.48081000       0.79718800
    43  C          0.68679000       0.54009000       0.15511000
    44  C          0.31321000       0.45991000       0.84489000
    45  C          0.71891100       0.44159000       0.25841100
    46  C          0.28108900       0.55841000       0.74158900
    47  C          0.44459000       0.22949000       0.51551000
    48  C          0.55541000       0.77051000       0.48449000
    49  C          0.31101000       0.23029000       0.58391000
    50  C          0.68899000       0.76971000       0.41609000
    51  C          0.27731000       0.24179000       0.70551000
    52  C          0.72269000       0.75821000       0.29449000
    53  C          0.28051000       0.34509000       0.49611100
    54  C          0.71949000       0.65491000       0.50388900
    55  C          0.35361000       0.41829000       0.36391100
    56  C          0.64639000       0.58171000       0.63608900
    57  C          0.20681000       0.32759000       0.70741100
    58  C          0.79319000       0.67241000       0.29258900
    59  C          0.18859000       0.38929000       0.58481100
    60  C          0.81141000       0.61071000       0.41518900
    61  C          0.21431000       0.52558000       0.51821000
    62  C          0.78569000       0.47442000       0.48179000
    63  C          0.53761000       0.23481000       0.73871100
    64  C          0.46239000       0.76519000       0.26128900
    65  C          0.46351000       0.26839000       0.84281000
    66  C          0.53649000       0.73161000       0.15719000
    67  C          0.48539000       0.60499000       0.20551100
    68  C          0.51461000       0.39501000       0.79448900
    69  C          0.35149000       0.55369000       0.28821000
    70  C          0.64851000       0.44631000       0.71179000
    71  C          0.28991000       0.59889000       0.38591000
    72  C          0.71009000       0.40111000       0.61409000
    73  C          0.67429000       0.27458000       0.64971000
    74  C          0.32571000       0.72542000       0.35029000
    75  C          0.71331000       0.29629000       0.50991000
    76  C          0.28669000       0.70371000       0.49009000
    77  C          0.19199000       0.58949000       0.59431000
    78  C          0.80801000       0.41051000       0.40569000
    79  C          0.78741100       0.48529000       0.28671100
    80  C          0.21258900       0.51471000       0.71328900
    81  C          0.18329000       0.37799000       0.79651000
    82  C          0.81671000       0.62201000       0.20349000
    83  C          0.27391000       0.34879000       0.84891100
    84  C          0.72609000       0.65121000       0.15108900
    85  Br         0.15752000       0.11152000       0.36282000
    86  Br         0.84248000       0.88848000       0.63718000
    87  Br         0.07772000       0.10522000       0.23962000
    88  Br         0.92228000       0.89478000       0.76038000
