data_ULANIH
_symmetry_space_group_name_H-M    'P1'
_symmetry_Int_Tables_number       1
loop_
_symmetry_equiv_pos_site_id
_symmetry_equiv_pos_as_xyz
1 x,y,z
_cell_length_a                   26.655417
_cell_length_b                   7.37114
_cell_length_c                   10.74217
_cell_angle_alpha                90.0
_cell_angle_beta                 90.0
_cell_angle_gamma                90.0
loop_
_atom_site_label
_atom_site_type_symbol
_atom_site_fract_x
_atom_site_fract_y
_atom_site_fract_z
     1  Br         0.67738200       0.75000000      -0.00519800
     2  Br         0.82261800       0.25000000       0.49480200
     3  Br         0.32261800       0.25000000       0.00519800
     4  Br         0.17738200       0.75000000       0.50519800
     5  Br         0.42574200       0.75000000       0.91194200
     6  Br         0.07425800       0.25000000       0.41194200
     7  Br         0.57425800       0.25000000       0.08805800
     8  Br         0.92574200       0.75000000       0.58805800
     9  Br         0.38324200       0.75000000       0.43154200
    10  Br         0.11675800       0.25000000       0.93154200
    11  Br         0.61675800       0.25000000       0.56845800
    12  Br         0.88324200       0.75000000       0.06845800
    13  O          0.62941700       0.75000000       0.47455160
    14  O          0.87058300       0.25000000       0.97455160
    15  O          0.37058300       0.25000000       0.52544840
    16  O          0.12941700       0.75000000       0.02544840
    17  O          0.67502600       0.75000000       0.64796160
    18  O          0.82497400       0.25000000       0.14796160
    19  O          0.32497400       0.25000000       0.35203840
    20  O          0.17502600       0.75000000       0.85203840
    21  O          0.54550600       0.75000000       0.61790160
    22  O          0.95449400       0.25000000       0.11790160
    23  O          0.45449400       0.25000000       0.38209840
    24  O          0.04550600       0.75000000       0.88209840
    25  O          0.59110700       0.75000000       0.78785170
    26  O          0.90889300       0.25000000       0.28785170
    27  O          0.40889300       0.25000000       0.21214830
    28  O          0.09110700       0.75000000       0.71214830
    29  H          0.61601100       0.75000000       0.80930000
    30  H          0.88398900       0.25000000       0.30930000
    31  H          0.38398900       0.25000000       0.19070000
    32  H          0.11601100       0.75000000       0.69070000
    33  C          0.63459900       0.75000000       0.58902000
    34  C          0.86540100       0.25000000       0.08902000
    35  C          0.36540100       0.25000000       0.41098000
    36  C          0.13459900       0.75000000       0.91098000
    37  C          0.58625900       0.75000000       0.66562000
    38  C          0.91374100       0.25000000       0.16562000
    39  C          0.41374100       0.25000000       0.33438000
    40  C          0.08625900       0.75000000       0.83438000
    41  N          0.74154800       0.75000000       0.45542000
    42  N          0.75845200       0.25000000       0.95542000
    43  N          0.25845200       0.25000000       0.54458000
    44  N          0.24154800       0.75000000       0.04458000
    45  H          0.72071200       0.75000000       0.52230000
    46  H          0.77928800       0.25000000       0.02230000
    47  H          0.27928800       0.25000000       0.47770000
    48  H          0.22071200       0.75000000       0.97770000
    49  N          0.79466800       0.75000000       0.26672000
    50  N          0.70533200       0.25000000       0.76672000
    51  N          0.20533200       0.25000000       0.73328000
    52  N          0.29466800       0.75000000       0.23328000
    53  H          0.81481100       0.75000000       0.19930000
    54  H          0.68518900       0.25000000       0.69930000
    55  H          0.18518900       0.25000000       0.80070000
    56  H          0.31481100       0.75000000       0.30070000
    57  C          0.73015700       0.58422000       0.38162170
    58  C          0.76984300       0.41578000       0.88162170
    59  C          0.26984300       0.08422000       0.61837830
    60  C          0.23015700       0.91578000       0.11837830
    61  C          0.26984300       0.41578000       0.61837830
    62  C          0.23015700       0.58422000       0.11837830
    63  C          0.73015700       0.91578000       0.38162170
    64  C          0.76984300       0.08422000       0.88162170
    65  H          0.69420000       0.58270000       0.35830000
    66  H          0.80580000       0.41730000       0.85830000
    67  H          0.30580000       0.08270000       0.64170000
    68  H          0.19420000       0.91730000       0.14170000
    69  H          0.30580000       0.41730000       0.64170000
    70  H          0.19420000       0.58270000       0.14170000
    71  H          0.69420000       0.91730000       0.35830000
    72  H          0.80580000       0.08270000       0.85830000
    73  H          0.73730000       0.47460000       0.43180000
    74  H          0.76270000       0.52540000       0.93180000
    75  H          0.26270000       0.97460000       0.56820000
    76  H          0.23730000       0.02540000       0.06820000
    77  H          0.26270000       0.52540000       0.56820000
    78  H          0.23730000       0.47460000       0.06820000
    79  H          0.73730000       0.02540000       0.43180000
    80  H          0.76270000       0.97460000       0.93180000
    81  C          0.76260700       0.58472000       0.26486170
    82  C          0.73739300       0.41528000       0.76486170
    83  C          0.23739300       0.08472000       0.73513830
    84  C          0.26260700       0.91528000       0.23513830
    85  C          0.23739300       0.41528000       0.73513830
    86  C          0.26260700       0.58472000       0.23513830
    87  C          0.76260700       0.91528000       0.26486170
    88  C          0.73739300       0.08472000       0.76486170
    89  H          0.78390000       0.47470000       0.26280000
    90  H          0.71610000       0.52530000       0.76280000
    91  H          0.21610000       0.97470000       0.73720000
    92  H          0.28390000       0.02530000       0.23720000
    93  H          0.21610000       0.52530000       0.73720000
    94  H          0.28390000       0.47470000       0.23720000
    95  H          0.78390000       0.02530000       0.26280000
    96  H          0.71610000       0.97470000       0.76280000
    97  H          0.74110000       0.58490000       0.18980000
    98  H          0.75890000       0.41510000       0.68980000
    99  H          0.25890000       0.08490000       0.81020000
   100  H          0.24110000       0.91510000       0.31020000
   101  H          0.25890000       0.41510000       0.81020000
   102  H          0.24110000       0.58490000       0.31020000
   103  H          0.74110000       0.91510000       0.18980000
   104  H          0.75890000       0.08490000       0.68980000
   105  C          0.82783100       0.75000000       0.37792000
   106  C          0.67216900       0.25000000       0.87792000
   107  C          0.17216900       0.25000000       0.62208000
   108  C          0.32783100       0.75000000       0.12208000
   109  H          0.84900000       0.85530000       0.37690000
   110  H          0.65100000       0.14470000       0.87690000
   111  H          0.15100000       0.35530000       0.62310000
   112  H          0.34900000       0.64470000       0.12310000
   113  H          0.15100000       0.14470000       0.62310000
   114  H          0.34900000       0.85530000       0.12310000
   115  H          0.84900000       0.64470000       0.37690000
   116  H          0.65100000       0.35530000       0.87690000
   117  C          0.79544900       0.75000000       0.49432000
   118  C          0.70455100       0.25000000      -0.00568000
   119  C          0.20455100       0.25000000       0.50568000
   120  C          0.29544900       0.75000000       0.00568000
   121  H          0.80250000       0.64420000       0.54340000
   122  H          0.69750000       0.35580000       0.04340000
   123  H          0.19750000       0.14420000       0.45660000
   124  H          0.30250000       0.85580000       0.95660000
   125  H          0.19750000       0.35580000       0.45660000
   126  H          0.30250000       0.64420000       0.95660000
   127  H          0.80250000       0.85580000       0.54340000
   128  H          0.69750000       0.14420000       0.04340000
   129  N          0.55215800       0.75000000       0.33117190
   130  N          0.94784200       0.25000000       0.83117190
   131  N          0.44784200       0.25000000       0.66882810
   132  N          0.05215800       0.75000000       0.16882810
   133  H          0.57221100       0.75000000       0.39430000
   134  H          0.92778900       0.25000000       0.89430000
   135  H          0.42778900       0.25000000       0.60570000
   136  H          0.07221100       0.75000000       0.10570000
   137  N          0.49818800       0.75000000       0.14502000
   138  N          0.00181200       0.25000000       0.64502000
   139  N          0.50181200       0.25000000       0.85498000
   140  N         -0.00181200       0.75000000       0.35498000
   141  H          0.48071200       0.75000000       0.08730000
   142  H          0.01928800       0.25000000       0.58730000
   143  H          0.51928800       0.25000000       0.91270000
   144  H          0.98071200       0.75000000       0.41270000
   145  C          0.58443900       0.75000000       0.21822000
   146  C          0.91556100       0.25000000       0.71822000
   147  C          0.41556100       0.25000000       0.78178000
   148  C          0.08443900       0.75000000       0.28178000
   149  H          0.60650000       0.64700000       0.21980000
   150  H          0.89350000       0.35300000       0.71980000
   151  H          0.39350000       0.14700000       0.78020000
   152  H          0.10650000       0.85300000       0.28020000
   153  H          0.39350000       0.35300000       0.78020000
   154  H          0.10650000       0.64700000       0.28020000
   155  H          0.60650000       0.85300000       0.21980000
   156  H          0.89350000       0.14700000       0.71980000
   157  C          0.55141900       0.75000000       0.10242000
   158  C          0.94858100       0.25000000       0.60242000
   159  C          0.44858100       0.25000000       0.89758000
   160  C          0.05141900       0.75000000       0.39758000
   161  H          0.55790000       0.85530000       0.05230000
   162  H          0.94210000       0.14470000       0.55230000
   163  H          0.44210000       0.35530000       0.94770000
   164  H          0.05790000       0.64470000       0.44770000
   165  H          0.44210000       0.14470000       0.94770000
   166  H          0.05790000       0.85530000       0.44770000
   167  H          0.55790000       0.64470000       0.05230000
   168  H          0.94210000       0.35530000       0.55230000
   169  C          0.48674600       0.58452000       0.21948160
   170  C          0.01325400       0.41548000       0.71948160
   171  C          0.51325400       0.08452000       0.78051840
   172  C          0.98674600       0.91548000       0.28051840
   173  C          0.51325400       0.41548000       0.78051840
   174  C          0.98674600       0.58452000       0.28051840
   175  C          0.48674600       0.91548000       0.21948160
   176  C          0.01325400       0.08452000       0.71948160
   177  H          0.49310000       0.47430000       0.16920000
   178  H          0.00690000       0.52570000       0.66920000
   179  H          0.50690000       0.97430000       0.83080000
   180  H          0.99310000       0.02570000       0.33080000
   181  H          0.50690000       0.52570000       0.83080000
   182  H          0.99310000       0.47430000       0.33080000
   183  H          0.49310000       0.02570000       0.16920000
   184  H          0.00690000       0.97430000       0.66920000
   185  H          0.45100000       0.58460000       0.24480000
   186  H          0.04900000       0.41540000       0.74480000
   187  H          0.54900000       0.08460000       0.75520000
   188  H          0.95100000       0.91540000       0.25520000
   189  H          0.54900000       0.41540000       0.75520000
   190  H          0.95100000       0.58460000       0.25520000
   191  H          0.45100000       0.91540000       0.24480000
   192  H          0.04900000       0.08460000       0.74480000
   193  C          0.52033700       0.58532000       0.33409170
   194  C          0.97966300       0.41468000       0.83409170
   195  C          0.47966300       0.08532000       0.66590830
   196  C          0.02033700       0.91468000       0.16590830
   197  C          0.47966300       0.41468000       0.66590830
   198  C          0.02033700       0.58532000       0.16590830
   199  C          0.52033700       0.91468000       0.33409170
   200  C          0.97966300       0.08532000       0.83409170
   201  H          0.49950000       0.58490000       0.41050000
   202  H          0.00050000       0.41510000       0.91050000
   203  H          0.50050000       0.08490000       0.58950000
   204  H         -0.00050000       0.91510000       0.08950000
   205  H          0.50050000       0.41510000       0.58950000
   206  H         -0.00050000       0.58490000       0.08950000
   207  H          0.49950000       0.91510000       0.41050000
   208  H          0.00050000       0.08490000       0.91050000
   209  H          0.54170000       0.47550000       0.33470000
   210  H          0.95830000       0.52450000       0.83470000
   211  H          0.45830000       0.97550000       0.66530000
   212  H          0.04170000       0.02450000       0.16530000
   213  H          0.45830000       0.52450000       0.66530000
   214  H          0.04170000       0.47550000       0.16530000
   215  H          0.54170000       0.02450000       0.33470000
   216  H          0.95830000       0.97550000       0.83470000
   217  O          0.32773800       0.75000000       0.71492000
   218  O          0.17226200       0.25000000       0.21492000
   219  O          0.67226200       0.25000000       0.28508000
   220  O          0.82773800       0.75000000       0.78508000
   221  H          0.34131200       0.75000000       0.64730000
   222  H          0.15868800       0.25000000       0.14730000
   223  H          0.65868800       0.25000000       0.35270000
   224  H          0.84131200       0.75000000       0.85270000
   225  H          0.35241600       0.75000000       0.76340000
   226  H          0.14758400       0.25000000       0.26340000
   227  H          0.64758400       0.25000000       0.23660000
   228  H          0.85241600       0.75000000       0.73660000
