data_ULAZIQ
_symmetry_space_group_name_H-M    'P1'
_symmetry_Int_Tables_number       1
loop_
_symmetry_equiv_pos_site_id
_symmetry_equiv_pos_as_xyz
1 x,y,z
_cell_length_a                   23.3062
_cell_length_b                   8.09797
_cell_length_c                   15.704914
_cell_angle_alpha                90.0
_cell_angle_beta                 98.7813
_cell_angle_gamma                90.0
loop_
_atom_site_label
_atom_site_type_symbol
_atom_site_fract_x
_atom_site_fract_y
_atom_site_fract_z
     1  O          0.37970500       0.68765140       0.87697400
     2  O          0.87970500       0.18765140       0.87697400
     3  O          0.62029500       0.68765140       0.62302600
     4  O          0.12029500       0.18765140       0.62302600
     5  O          0.62029500       0.31234860       0.12302600
     6  O          0.12029500       0.81234860       0.12302600
     7  O          0.37970500       0.31234860       0.37697400
     8  O          0.87970500       0.81234860       0.37697400
     9  H          0.36839000       0.76930000       0.91478600
    10  H          0.86839000       0.26930000       0.91478600
    11  H          0.63161000       0.76930000       0.58521400
    12  H          0.13161000       0.26930000       0.58521400
    13  H          0.63161000       0.23070000       0.08521400
    14  H          0.13161000       0.73070000       0.08521400
    15  H          0.36839000       0.23070000       0.41478600
    16  H          0.86839000       0.73070000       0.41478600
    17  C          0.42015600       0.57405180       0.92176100
    18  C          0.92015600       0.07405180       0.92176100
    19  C          0.57984400       0.57405180       0.57823900
    20  C          0.07984400       0.07405180       0.57823900
    21  C          0.57984400       0.42594820       0.07823900
    22  C          0.07984400       0.92594820       0.07823900
    23  C          0.42015600       0.42594820       0.42176100
    24  C          0.92015600       0.92594820       0.42176100
    25  H          0.42977000       0.51420000       0.86778900
    26  H          0.92977000       0.01420000       0.86778900
    27  H          0.57023000       0.51420000       0.63221100
    28  H          0.07023000       0.01420000       0.63221100
    29  H          0.57023000       0.48580000       0.13221100
    30  H          0.07023000      -0.01420000       0.13221100
    31  H          0.42977000       0.48580000       0.36778900
    32  H          0.92977000      -0.01420000       0.36778900
    33  H          0.45437000       0.63361900       0.94989000
    34  H          0.95437000       0.13361900       0.94989000
    35  H          0.54563000       0.63361900       0.55011000
    36  H          0.04563000       0.13361900       0.55011000
    37  H          0.54563000       0.36638100       0.05011000
    38  H          0.04563000       0.86638100       0.05011000
    39  H          0.45437000       0.36638100       0.44989000
    40  H          0.95437000       0.86638100       0.44989000
    41  C          0.39354600       0.46683170       0.98441200
    42  C          0.89354600       0.96683170       0.98441200
    43  C          0.60645400       0.46683170       0.51558800
    44  C          0.10645400       0.96683170       0.51558800
    45  C          0.60645400       0.53316830       0.01558800
    46  C          0.10645400       0.03316830       0.01558800
    47  C          0.39354600       0.53316830       0.48441200
    48  C          0.89354600       0.03316830       0.48441200
    49  H          0.35717000       0.41420000       0.95448900
    50  H          0.85717000       0.91420000       0.95448900
    51  H          0.64283000       0.41420000       0.54551100
    52  H          0.14283000       0.91420000       0.54551100
    53  H          0.64283000       0.58580000       0.04551100
    54  H          0.14283000       0.08580000       0.04551100
    55  H          0.35717000       0.58580000       0.45448900
    56  H          0.85717000       0.08580000       0.45448900
    57  H          0.42227000       0.38111900       0.00721000
    58  H          0.92227000       0.88111900       0.00721000
    59  H          0.57773000       0.38111900       0.49279000
    60  H          0.07773000       0.88111900       0.49279000
    61  H          0.57773000       0.61888100      -0.00721000
    62  H          0.07773000       0.11888100      -0.00721000
    63  H          0.42227000       0.61888100       0.50721000
    64  H          0.92227000       0.11888100       0.50721000
    65  N          0.37807400       0.56115130       0.05751700
    66  N          0.87807400       0.06115130       0.05751700
    67  N          0.62192600       0.56115130       0.44248300
    68  N          0.12192600       0.06115130       0.44248300
    69  N          0.62192600       0.43884870       0.94248300
    70  N          0.12192600       0.93884870       0.94248300
    71  N          0.37807400       0.43884870       0.55751700
    72  N          0.87807400       0.93884870       0.55751700
    73  C          0.41930500       0.62526160       0.12393800
    74  C          0.91930500       0.12526160       0.12393800
    75  C          0.58069500       0.62526160       0.37606200
    76  C          0.08069500       0.12526160       0.37606200
    77  C          0.58069500       0.37473840       0.87606200
    78  C          0.08069500       0.87473840       0.87606200
    79  C          0.41930500       0.37473840       0.62393800
    80  C          0.91930500       0.87473840       0.62393800
    81  O          0.47132400       0.61477130       0.12634600
    82  O          0.97132400       0.11477130       0.12634600
    83  O          0.52867600       0.61477130       0.37365400
    84  O          0.02867600       0.11477130       0.37365400
    85  O          0.52867600       0.38522870       0.87365400
    86  O          0.02867600       0.88522870       0.87365400
    87  O          0.47132400       0.38522870       0.62634600
    88  O          0.97132400       0.88522870       0.62634600
    89  C          0.38547500       0.70470150       0.18596800
    90  C          0.88547500       0.20470150       0.18596800
    91  C          0.61452500       0.70470150       0.31403200
    92  C          0.11452500       0.20470150       0.31403200
    93  C          0.61452500       0.29529850       0.81403200
    94  C          0.11452500       0.79529850       0.81403200
    95  C          0.38547500       0.29529850       0.68596800
    96  C          0.88547500       0.79529850       0.68596800
    97  C          0.40447600       0.78750170       0.26203800
    98  C          0.90447600       0.28750170       0.26203800
    99  C          0.59552400       0.78750170       0.23796200
   100  C          0.09552400       0.28750170       0.23796200
   101  C          0.59552400       0.21249830       0.73796200
   102  C          0.09552400       0.71249830       0.73796200
   103  C          0.40447600       0.21249830       0.76203800
   104  C          0.90447600       0.71249830       0.76203800
   105  H          0.44507000       0.80101900       0.28301000
   106  H          0.94507000       0.30101900       0.28301000
   107  H          0.55493000       0.80101900       0.21699000
   108  H          0.05493000       0.30101900       0.21699000
   109  H          0.55493000       0.19898100       0.71699000
   110  H          0.05493000       0.69898100       0.71699000
   111  H          0.44507000       0.19898100       0.78301000
   112  H          0.94507000       0.69898100       0.78301000
   113  C          0.36194700       0.84968180       0.30719900
   114  C          0.86194700       0.34968180       0.30719900
   115  C          0.63805300       0.84968180       0.19280100
   116  C          0.13805300       0.34968180       0.19280100
   117  C          0.63805300       0.15031820       0.69280100
   118  C          0.13805300       0.65031820       0.69280100
   119  C          0.36194700       0.15031820       0.80719900
   120  C          0.86194700       0.65031820       0.80719900
   121  H          0.37267000       0.91020000       0.35851200
   122  H          0.87267000       0.41020000       0.35851200
   123  H          0.62733000       0.91020000       0.14148800
   124  H          0.12733000       0.41020000       0.14148800
   125  H          0.62733000       0.08980000       0.64148800
   126  H          0.12733000       0.58980000       0.64148800
   127  H          0.37267000       0.08980000       0.85851200
   128  H          0.87267000       0.58980000       0.85851200
   129  C          0.30310600       0.82746180       0.27698900
   130  C          0.80310600       0.32746180       0.27698900
   131  C          0.69689400       0.82746180       0.22301100
   132  C          0.19689400       0.32746180       0.22301100
   133  C          0.69689400       0.17253820       0.72301100
   134  C          0.19689400       0.67253820       0.72301100
   135  C          0.30310600       0.17253820       0.77698900
   136  C          0.80310600       0.67253820       0.77698900
   137  H          0.27577000       0.86920000       0.30921100
   138  H          0.77577000       0.36920000       0.30921100
   139  H          0.72423000       0.86920000       0.19078900
   140  H          0.22423000       0.36920000       0.19078900
   141  H          0.72423000       0.13080000       0.69078900
   142  H          0.22423000       0.63080000       0.69078900
   143  H          0.27577000       0.13080000       0.80921100
   144  H          0.77577000       0.63080000       0.80921100
   145  C          0.28429600       0.74375180       0.19972900
   146  C          0.78429600       0.24375180       0.19972900
   147  C          0.71570400       0.74375180       0.30027100
   148  C          0.21570400       0.24375180       0.30027100
   149  C          0.71570400       0.25624820       0.80027100
   150  C          0.21570400       0.75624820       0.80027100
   151  C          0.28429600       0.25624820       0.69972900
   152  C          0.78429600       0.75624820       0.69972900
   153  H          0.24357000       0.73020000       0.17961000
   154  H          0.74357000       0.23020000       0.17961000
   155  H          0.75643000       0.73020000       0.32039000
   156  H          0.25643000       0.23020000       0.32039000
   157  H          0.75643000       0.26980000       0.82039000
   158  H          0.25643000       0.76980000       0.82039000
   159  H          0.24357000       0.26980000       0.67961000
   160  H          0.74357000       0.76980000       0.67961000
   161  C          0.32661500       0.68303150       0.15529800
   162  C          0.82661500       0.18303150       0.15529800
   163  C          0.67338500       0.68303150       0.34470200
   164  C          0.17338500       0.18303150       0.34470200
   165  C          0.67338500       0.31696850       0.84470200
   166  C          0.17338500       0.81696850       0.84470200
   167  C          0.32661500       0.31696850       0.65529800
   168  C          0.82661500       0.81696850       0.65529800
   169  C          0.32176500       0.58901160       0.07291800
   170  C          0.82176500       0.08901160       0.07291800
   171  C          0.67823500       0.58901160       0.42708200
   172  C          0.17823500       0.08901160       0.42708200
   173  C          0.67823500       0.41098840       0.92708200
   174  C          0.17823500       0.91098840       0.92708200
   175  C          0.32176500       0.41098840       0.57291800
   176  C          0.82176500       0.91098840       0.57291800
   177  O          0.27834400       0.54161130       0.02567600
   178  O          0.77834400       0.04161130       0.02567600
   179  O          0.72165600       0.54161130       0.47432400
   180  O          0.22165600       0.04161130       0.47432400
   181  O          0.72165600       0.45838870       0.97432400
   182  O          0.22165600       0.95838870       0.97432400
   183  O          0.27834400       0.45838870       0.52567600
   184  O          0.77834400       0.95838870       0.52567600
   185  O          0.16332400       0.57477110       0.02355600
   186  O          0.66332400       0.07477110       0.02355600
   187  O          0.83667600       0.57477110       0.47644400
   188  O          0.33667600       0.07477110       0.47644400
   189  O          0.83667600       0.42522890       0.97644400
   190  O          0.33667600       0.92522890       0.97644400
   191  O          0.16332400       0.42522890       0.52355600
   192  O          0.66332400       0.92522890       0.52355600
   193  H          0.20238000       0.56520000       0.02661100
   194  H          0.70238000       0.06520000       0.02661100
   195  H          0.79762000       0.56520000       0.47338900
   196  H          0.29762000       0.06520000       0.47338900
   197  H          0.79762000       0.43480000       0.97338900
   198  H          0.29762000       0.93480000       0.97338900
   199  H          0.20238000       0.43480000       0.52661100
   200  H          0.70238000       0.93480000       0.52661100
   201  C          0.13394500       0.48017150       0.95786300
   202  C          0.63394500       0.98017150       0.95786300
   203  C          0.86605500       0.48017150       0.54213700
   204  C          0.36605500       0.98017150       0.54213700
   205  C          0.86605500       0.51982850       0.04213700
   206  C          0.36605500       0.01982850       0.04213700
   207  C          0.13394500       0.51982850       0.45786300
   208  C          0.63394500       0.01982850       0.45786300
   209  C          0.07346500       0.48643160       0.94448200
   210  C          0.57346500      -0.01356840       0.94448200
   211  C          0.92653500       0.48643160       0.55551800
   212  C          0.42653500      -0.01356840       0.55551800
   213  C          0.92653500       0.51356840       0.05551800
   214  C          0.42653500       0.01356840       0.05551800
   215  C          0.07346500       0.51356840       0.44448200
   216  C          0.57346500       0.01356840       0.44448200
   217  H          0.05386000       0.55320000       0.98029000
   218  H          0.55386000       0.05320000       0.98029000
   219  H          0.94614000       0.55320000       0.51971000
   220  H          0.44614000       0.05320000       0.51971000
   221  H          0.94614000       0.44680000       0.01971000
   222  H          0.44614000       0.94680000       0.01971000
   223  H          0.05386000       0.44680000       0.48029000
   224  H          0.55386000       0.94680000       0.48029000
   225  C          0.04315600       0.39688170       0.87653100
   226  C          0.54315600       0.89688170       0.87653100
   227  C          0.95684400       0.39688170       0.62346900
   228  C          0.45684400       0.89688170       0.62346900
   229  C          0.95684400       0.60311830       0.12346900
   230  C          0.45684400       0.10311830       0.12346900
   231  C          0.04315600       0.60311830       0.37653100
   232  C          0.54315600       0.10311830       0.37653100
   233  H          0.00067000       0.39781900       0.86569000
   234  H          0.50067000       0.89781900       0.86569000
   235  H         -0.00067000       0.39781900       0.63431000
   236  H          0.49933000       0.89781900       0.63431000
   237  H         -0.00067000       0.60218100       0.13431000
   238  H          0.49933000       0.10218100       0.13431000
   239  H          0.00067000       0.60218100       0.36569000
   240  H          0.50067000       0.10218100       0.36569000
   241  C          0.07213600       0.30158170       0.82262200
   242  C          0.57213600       0.80158170       0.82262200
   243  C          0.92786400       0.30158170       0.67737800
   244  C          0.42786400       0.80158170       0.67737800
   245  C          0.92786400       0.69841830       0.17737800
   246  C          0.42786400       0.19841830       0.17737800
   247  C          0.07213600       0.69841830       0.32262200
   248  C          0.57213600       0.19841830       0.32262200
   249  H          0.05047000       0.23620000       0.77548900
   250  H          0.55047000       0.73620000       0.77548900
   251  H          0.94953000       0.23620000       0.72451100
   252  H          0.44953000       0.73620000       0.72451100
   253  H          0.94953000       0.76380000       0.22451100
   254  H          0.44953000       0.26380000       0.22451100
   255  H          0.05047000       0.76380000       0.27548900
   256  H          0.55047000       0.26380000       0.27548900
   257  C          0.13277500       0.29578150       0.83788200
   258  C          0.63277500       0.79578150       0.83788200
   259  C          0.86722500       0.29578150       0.66211800
   260  C          0.36722500       0.79578150       0.66211800
   261  C          0.86722500       0.70421850       0.16211800
   262  C          0.36722500       0.20421850       0.16211800
   263  C          0.13277500       0.70421850       0.33788200
   264  C          0.63277500       0.20421850       0.33788200
   265  O          0.16430400       0.20226120       0.78943400
   266  O          0.66430400       0.70226120       0.78943400
   267  O          0.83569600       0.20226120       0.71056600
   268  O          0.33569600       0.70226120       0.71056600
   269  O          0.83569600       0.79773880       0.21056600
   270  O          0.33569600       0.29773880       0.21056600
   271  O          0.16430400       0.79773880       0.28943400
   272  O          0.66430400       0.29773880       0.28943400
   273  H          0.14399000       0.18820000       0.73678600
   274  H          0.64399000       0.68820000       0.73678600
   275  H          0.85601000       0.18820000       0.76321400
   276  H          0.35601000       0.68820000       0.76321400
   277  H          0.85601000       0.81180000       0.26321400
   278  H          0.35601000       0.31180000       0.26321400
   279  H          0.14399000       0.81180000       0.23678600
   280  H          0.64399000       0.31180000       0.23678600
   281  C          0.16386500       0.38430150       0.90569200
   282  C          0.66386500       0.88430150       0.90569200
   283  C          0.83613500       0.38430150       0.59430800
   284  C          0.33613500       0.88430150       0.59430800
   285  C          0.83613500       0.61569850       0.09430800
   286  C          0.33613500       0.11569850       0.09430800
   287  C          0.16386500       0.61569850       0.40569200
   288  C          0.66386500       0.11569850       0.40569200
   289  H          0.20497000       0.38081800       0.91501000
   290  H          0.70497000       0.88081800       0.91501000
   291  H          0.79503000       0.38081800       0.58499000
   292  H          0.29503000       0.88081800       0.58499000
   293  H          0.79503000       0.61918200       0.08499000
   294  H          0.29503000       0.11918200       0.08499000
   295  H          0.20497000       0.61918200       0.41501000
   296  H          0.70497000       0.11918200       0.41501000
