data_ULEMUT
_symmetry_space_group_name_H-M    'P1'
_symmetry_Int_Tables_number       1
loop_
_symmetry_equiv_pos_site_id
_symmetry_equiv_pos_as_xyz
1 x,y,z
_cell_length_a                   11.57401
_cell_length_b                   9.19381
_cell_length_c                   22.33183
_cell_angle_alpha                90.0
_cell_angle_beta                 92.71505
_cell_angle_gamma                90.0
loop_
_atom_site_label
_atom_site_type_symbol
_atom_site_fract_x
_atom_site_fract_y
_atom_site_fract_z
     1  Br         0.49962800       0.65466300       0.14073911
     2  Br         0.00037200       0.15466300       0.35926089
     3  Br         0.50037200       0.34533700       0.85926089
     4  Br        -0.00037200       0.84533700       0.64073911
     5  S          0.96964600       0.38547500       0.87187200
     6  S          0.53035400       0.88547500       0.62812800
     7  S          0.03035400       0.61452500       0.12812800
     8  S          0.46964600       0.11452500       0.37187200
     9  O          0.10803130       0.03970160       0.13394600
    10  O          0.39196870       0.53970160       0.36605400
    11  O          0.89196870       0.96029840       0.86605400
    12  O          0.60803130       0.46029840       0.63394600
    13  O          0.98360890       0.22011150       0.11113500
    14  O          0.51639110       0.72011150       0.38886500
    15  O          0.01639110       0.77988850       0.88886500
    16  O          0.48360890       0.27988850       0.61113500
    17  N          0.82311860       0.48290170       0.94621700
    18  N          0.67688140       0.98290170       0.55378300
    19  N          0.17688140       0.51709830       0.05378300
    20  N          0.32311860       0.01709830       0.44621700
    21  H          0.80338200       0.52420000       0.91411000
    22  H          0.69661800       0.02420000       0.58589000
    23  H          0.19661800       0.47580000       0.08589000
    24  H          0.30338200       0.97580000       0.41411000
    25  N          0.95025870       0.32067160       0.99370600
    26  N          0.54974130       0.82067160       0.50629400
    27  N          0.04974130       0.67932840       0.00629400
    28  N          0.45025870       0.17932840       0.49370600
    29  N          0.17367130       0.04476160       0.00762600
    30  N          0.32632870       0.54476160       0.49237400
    31  N          0.82632870       0.95523840       0.99237400
    32  N          0.67367130       0.45523840       0.50762600
    33  N          0.13356140       0.21257180       0.83367700
    34  N          0.36643860       0.71257180       0.66632300
    35  N          0.86643860       0.78742820       0.16632300
    36  N          0.63356140       0.28742820       0.33367700
    37  C          0.91461850       0.39102000       0.94654800
    38  C          0.58538150       0.89102000       0.55345200
    39  C          0.08538150       0.60898000       0.05345200
    40  C          0.41461850       0.10898000       0.44654800
    41  C          0.03976150       0.22191190       0.98987800
    42  C          0.46023850       0.72191190       0.51012200
    43  C          0.96023850       0.77808810       0.01012200
    44  C          0.53976150       0.27808810       0.48987800
    45  C          0.08931150       0.13249190       0.03401800
    46  C          0.41068850       0.63249190       0.46598200
    47  C          0.91068850       0.86750810       0.96598200
    48  C          0.58931150       0.36750810       0.53401800
    49  C          0.17800150       0.08142000       0.94838800
    50  C          0.32199850       0.58142000       0.55161200
    51  C          0.82199850       0.91858000       0.05161200
    52  C          0.67800150       0.41858000       0.44838800
    53  C          0.24376160       0.03292000       0.89919800
    54  C          0.25623840       0.53292000       0.60080200
    55  C          0.75623840       0.96708000       0.10080200
    56  C          0.74376160       0.46708000       0.39919800
    57  C          0.32905180       0.92398000       0.90048100
    58  C          0.17094820       0.42398000       0.59951900
    59  C          0.67094820       0.07602000       0.09951900
    60  C          0.82905180       0.57602000       0.40048100
    61  H          0.35030000       0.87790000       0.93750000
    62  H          0.14970000       0.37790000       0.56250000
    63  H          0.64970000       0.12210000       0.06250000
    64  H          0.85030000       0.62210000       0.43750000
    65  C          0.38262000       0.88237000       0.84939110
    66  C          0.11738000       0.38237000       0.65060890
    67  C          0.61738000       0.11763000       0.15060890
    68  C          0.88262000       0.61763000       0.34939110
    69  H          0.43950000       0.80790000       0.85150000
    70  H          0.06050000       0.30790000       0.64850000
    71  H          0.56050000       0.19210000       0.14850000
    72  H          0.93950000       0.69210000       0.35150000
    73  C          0.35363190       0.94907000       0.79458100
    74  C          0.14636810       0.44907000       0.70541900
    75  C          0.64636810       0.05093000       0.20541900
    76  C          0.85363190       0.55093000       0.29458100
    77  H          0.38970000       0.91910000       0.75930000
    78  H          0.11030000       0.41910000       0.74070000
    79  H          0.61030000       0.08090000       0.24070000
    80  H          0.88970000       0.58090000       0.25930000
    81  C          0.27288180       0.05812000       0.79195900
    82  C          0.22711820       0.55812000       0.70804100
    83  C          0.72711820       0.94188000       0.20804100
    84  C          0.77288180       0.44188000       0.29195900
    85  H          0.25480000       0.10430000       0.75460000
    86  H          0.24520000       0.60430000       0.74540000
    87  H          0.74520000       0.89570000       0.24540000
    88  H          0.75480000       0.39570000       0.25460000
    89  C          0.21614160       0.10352000       0.84296800
    90  C          0.28385840       0.60352000       0.65703200
    91  C          0.78385840       0.89648000       0.15703200
    92  C          0.71614160       0.39648000       0.34296800
    93  C          0.07689150       0.25012000       0.88029800
    94  C          0.42310850       0.75012000       0.61970200
    95  C          0.92310850       0.74988000       0.11970200
    96  C          0.57689150       0.24988000       0.38029800
    97  C          0.09558150       0.19002000       0.93721800
    98  C          0.40441850       0.69002000       0.56278200
    99  C          0.90441850       0.80998000       0.06278200
   100  C          0.59558150       0.30998000       0.43721800
   101  C          0.75172850       0.51667190       0.99343800
   102  C          0.74827150       0.01667190       0.50656200
   103  C          0.24827150       0.48332810       0.00656200
   104  C          0.25172850       0.98332810       0.49343800
   105  C          0.65962830       0.61062000       0.97951900
   106  C          0.84037170       0.11062000       0.52048100
   107  C          0.34037170       0.38938000       0.02048100
   108  C          0.15962830       0.88938000       0.47951900
   109  H          0.64820000       0.64680000       0.93980000
   110  H          0.85180000       0.14680000       0.56020000
   111  H          0.35180000       0.35320000       0.06020000
   112  H          0.14820000       0.85320000       0.43980000
   113  C          0.58456810       0.65152000       0.02323100
   114  C          0.91543190       0.15152000       0.47676900
   115  C          0.41543190       0.34848000       0.97676900
   116  C          0.08456810       0.84848000       0.52323100
   117  H          0.52180000       0.71530000       0.01360000
   118  H          0.97820000       0.21530000       0.48640000
   119  H          0.47820000       0.28470000       0.98640000
   120  H          0.02180000       0.78470000       0.51360000
   121  C          0.60207830       0.59862000       0.08079900
   122  C          0.89792170       0.09862000       0.41920100
   123  C          0.39792170       0.40138000       0.91920100
   124  C          0.10207830       0.90138000       0.58079900
   125  C          0.69185820       0.50552000       0.09503900
   126  C          0.80814180       0.00552000       0.40496100
   127  C          0.30814180       0.49448000       0.90496100
   128  C          0.19185820      -0.00552000       0.59503900
   129  H          0.70260000       0.47000000       0.13480000
   130  H          0.79740000       0.97000000       0.36520000
   131  H          0.29740000       0.53000000       0.86520000
   132  H          0.20260000       0.03000000       0.63480000
   133  C          0.76697830       0.46302000       0.05178800
   134  C          0.73302170       0.96302000       0.44821200
   135  C          0.23302170       0.53698000       0.94821200
   136  C          0.26697830       0.03698000       0.55178800
   137  H          0.82850000       0.39760000       0.06180000
   138  H          0.67150000       0.89760000       0.43820000
   139  H          0.17150000       0.60240000       0.93820000
   140  H          0.32850000       0.10240000       0.56180000
   141  C          0.06458160       0.12302000       0.09744800
   142  C          0.43541840       0.62302000       0.40255200
   143  C          0.93541840       0.87698000       0.90255200
   144  C          0.56458160       0.37698000       0.59744800
   145  C          0.95419820       0.22542000       0.17310800
   146  C          0.54580180       0.72542000       0.32689200
   147  C          0.04580180       0.77458000       0.82689200
   148  C          0.45419820       0.27458000       0.67310800
   149  H          0.91420000       0.13550000       0.18340000
   150  H          0.58580000       0.63550000       0.31660000
   151  H          0.08580000       0.86450000       0.81660000
   152  H          0.41420000       0.36450000       0.68340000
   153  H          0.90340000       0.30880000       0.17940000
   154  H          0.59660000       0.80880000       0.32060000
   155  H          0.09660000       0.69120000       0.82060000
   156  H          0.40340000       0.19120000       0.67940000
   157  H          0.02500000       0.23540000       0.19870000
   158  H          0.47500000       0.73540000       0.30130000
   159  H          0.97500000       0.76460000       0.80130000
   160  H          0.52500000       0.26460000       0.69870000
   161  C          0.24678170       0.93598000       0.03936900
   162  C          0.25321830       0.43598000       0.46063100
   163  C          0.75321830       0.06402000       0.96063100
   164  C          0.74678170       0.56402000       0.53936900
   165  H          0.26090000       0.85370000       0.01210000
   166  H          0.23910000       0.35370000       0.48790000
   167  H          0.73910000       0.14630000       0.98790000
   168  H          0.76090000       0.64630000       0.51210000
   169  H          0.20580000       0.89780000       0.07390000
   170  H          0.29420000       0.39780000       0.42610000
   171  H          0.79420000       0.10220000       0.92610000
   172  H          0.70580000       0.60220000       0.57390000
   173  C          0.36130180       0.00053000       0.06132110
   174  C          0.13869820       0.50053000       0.43867890
   175  C          0.63869820      -0.00053000       0.93867890
   176  C          0.86130180       0.49947000       0.56132110
   177  H          0.40220000       0.03790000       0.02710000
   178  H          0.09780000       0.53790000       0.47290000
   179  H          0.59780000       0.96210000       0.97290000
   180  H          0.90220000       0.46210000       0.52710000
   181  H          0.40830000       0.92530000       0.08180000
   182  H          0.09170000       0.42530000       0.41820000
   183  H          0.59170000       0.07470000       0.91820000
   184  H          0.90830000       0.57470000       0.58180000
   185  H          0.34760000       0.08020000       0.08930000
   186  H          0.15240000       0.58020000       0.41070000
   187  H          0.65240000       0.91980000       0.91070000
   188  H          0.84760000       0.41980000       0.58930000
   189  S          0.28069400       0.44993500       0.21534200
   190  S          0.21930600       0.94993500       0.28465800
   191  S          0.71930600       0.55006500       0.78465800
   192  S          0.78069400       0.05006500       0.71534200
   193  O          0.23435130       0.36791160       0.16096600
   194  O          0.26564870       0.86791160       0.33903400
   195  O          0.76564870       0.63208840       0.83903400
   196  O          0.73435130       0.13208840       0.66096600
   197  C          0.19102000       0.40203000       0.27537100
   198  C          0.30898000       0.90203000       0.22462900
   199  C          0.80898000       0.59797000       0.72462900
   200  C          0.69102000       0.09797000       0.77537100
   201  H          0.11310000       0.44120000       0.26730000
   202  H          0.38690000       0.94120000       0.23270000
   203  H          0.88690000       0.55880000       0.73270000
   204  H          0.61310000       0.05880000       0.76730000
   205  H          0.22380000       0.44280000       0.31300000
   206  H          0.27620000       0.94280000       0.18700000
   207  H          0.77620000       0.55720000       0.68700000
   208  H          0.72380000       0.05720000       0.81300000
   209  H          0.18700000       0.29590000       0.27870000
   210  H          0.31300000       0.79590000       0.22130000
   211  H          0.81300000       0.70410000       0.72130000
   212  H          0.68700000       0.20410000       0.77870000
   213  C          0.40716190       0.35482000       0.24108900
   214  C          0.09283810       0.85482000       0.25891100
   215  C          0.59283810       0.64518000       0.75891100
   216  C          0.90716190       0.14518000       0.74108900
   217  H          0.38940000       0.25110000       0.24480000
   218  H          0.11060000       0.75110000       0.25520000
   219  H          0.61060000       0.74890000       0.75520000
   220  H          0.88940000       0.24890000       0.74480000
   221  H          0.43400000       0.39310000       0.28030000
   222  H          0.06600000       0.89310000       0.21970000
   223  H          0.56600000       0.60690000       0.71970000
   224  H          0.93400000       0.10690000       0.78030000
   225  H          0.46780000       0.36780000       0.21240000
   226  H          0.03220000       0.86780000       0.28760000
   227  H          0.53220000       0.63220000       0.78760000
   228  H          0.96780000       0.13220000       0.71240000
