data_ULESUB
_symmetry_space_group_name_H-M    'P1'
_symmetry_Int_Tables_number       1
loop_
_symmetry_equiv_pos_site_id
_symmetry_equiv_pos_as_xyz
1 x,y,z
_cell_length_a                   24.01301
_cell_length_b                   4.85732
_cell_length_c                   18.36847
_cell_angle_alpha                90.0
_cell_angle_beta                 110.9754
_cell_angle_gamma                90.0
loop_
_atom_site_label
_atom_site_type_symbol
_atom_site_fract_x
_atom_site_fract_y
_atom_site_fract_z
     1  C          0.26275180       0.02857000       0.15552000
     2  C          0.73724820       0.52857000       0.34448000
     3  C          0.73724820      -0.02857000       0.84448000
     4  C          0.26275180       0.47143000       0.65552000
     5  C          0.24537160       0.82243000       0.20421190
     6  C          0.75462840       0.32243000       0.29578810
     7  C          0.75462840       0.17757000       0.79578810
     8  C          0.24537160       0.67757000       0.70421190
     9  H          0.22330000       0.67180000       0.17210000
    10  H          0.77670000       0.17180000       0.32790000
    11  H          0.77670000       0.32820000       0.82790000
    12  H          0.22330000       0.82820000       0.67210000
    13  H          0.22070000       0.90800000       0.22960000
    14  H          0.77930000       0.40800000       0.27040000
    15  H          0.77930000       0.09200000       0.77040000
    16  H          0.22070000       0.59200000       0.72960000
    17  C          0.30292160       0.71913000       0.26402190
    18  C          0.69707840       0.21913000       0.23597810
    19  C          0.69707840       0.28087000       0.73597810
    20  C          0.30292160       0.78087000       0.76402190
    21  H          0.30560000       0.77000000       0.31620000
    22  H          0.69440000       0.27000000       0.18380000
    23  H          0.69440000       0.23000000       0.68380000
    24  H          0.30560000       0.73000000       0.81620000
    25  H          0.30560000       0.52040000       0.26130000
    26  H          0.69440000       0.02040000       0.23870000
    27  H          0.69440000       0.47960000       0.73870000
    28  H          0.30560000      -0.02040000       0.76130000
    29  C          0.35163180       0.85563000       0.24355180
    30  C          0.64836820       0.35563000       0.25644820
    31  C          0.64836820       0.14437000       0.75644820
    32  C          0.35163180       0.64437000       0.74355180
    33  N          0.32416130       0.02705000       0.17980140
    34  N          0.67583870       0.52705000       0.32019860
    35  N          0.67583870      -0.02705000       0.82019860
    36  N          0.32416130       0.47295000       0.67980140
    37  O          0.23045110       0.17345000       0.10436130
    38  O          0.76954890       0.67345000       0.39563870
    39  O          0.76954890       0.82655000       0.89563870
    40  O          0.23045110       0.32655000       0.60436130
    41  O          0.40477120       0.82895000       0.27560130
    42  O          0.59522880       0.32895000       0.22439870
    43  O          0.59522880       0.17105000       0.72439870
    44  O          0.40477120       0.67105000       0.77560130
    45  Br         0.36938200       0.25290700       0.13572200
    46  Br         0.63061800       0.75290700       0.36427800
    47  Br         0.63061800       0.74709300       0.86427800
    48  Br         0.36938200       0.24709300       0.63572200
    49  C          0.14382000       0.54337000       0.89880820
    50  C          0.85618000       0.04337000       0.60119180
    51  C          0.85618000       0.45663000       0.10119180
    52  C          0.14382000       0.95663000       0.39880820
    53  C          0.18820150       0.70007000       0.96516830
    54  C          0.81179850       0.20007000       0.53483170
    55  C          0.81179850       0.29993000       0.03483170
    56  C          0.18820150       0.79993000       0.46516830
    57  H          0.18630000       0.64110000       0.01470000
    58  H          0.81370000       0.14110000       0.48530000
    59  H          0.81370000       0.35890000       0.98530000
    60  H          0.18630000       0.85890000       0.51470000
    61  H          0.18030000       0.89620000       0.95930000
    62  H          0.81970000       0.39620000       0.54070000
    63  H          0.81970000       0.10380000       0.04070000
    64  H          0.18030000       0.60380000       0.45930000
    65  C          0.24862160       0.63537000       0.96120820
    66  C          0.75137840       0.13537000       0.53879180
    67  C          0.75137840       0.36463000       0.03879180
    68  C          0.24862160       0.86463000       0.46120820
    69  H          0.26600000       0.79840000       0.94750000
    70  H          0.73400000       0.29840000       0.55250000
    71  H          0.73400000       0.20160000       0.05250000
    72  H          0.26600000       0.70160000       0.44750000
    73  H          0.27550000       0.56700000       0.01100000
    74  H          0.72450000       0.06700000       0.48900000
    75  H          0.72450000       0.43300000       0.98900000
    76  H          0.27550000       0.93300000       0.51100000
    77  C          0.23744180       0.41807000       0.89912810
    78  C          0.76255820       0.91807000       0.60087190
    79  C          0.76255820       0.58193000       0.10087190
    80  C          0.23744180       0.08193000       0.39912810
    81  N          0.17635120       0.38495000       0.86602870
    82  N          0.82364880       0.88495000       0.63397130
    83  N          0.82364880       0.61505000       0.13397130
    84  N          0.17635120       0.11505000       0.36602870
    85  O          0.08985120       0.55015000       0.87697870
    86  O          0.91014880       0.05015000       0.62302130
    87  O          0.91014880       0.44985000       0.12302130
    88  O          0.08985120       0.94985000       0.37697870
    89  O          0.27328110       0.29585000       0.87911860
    90  O          0.72671890       0.79585000       0.62088140
    91  O          0.72671890       0.70415000       0.12088140
    92  O          0.27328110       0.20415000       0.37911860
    93  Br         0.13689200       0.14852700       0.77856800
    94  Br         0.86310800       0.64852700       0.72143200
    95  Br         0.86310800       0.85147300       0.22143200
    96  Br         0.13689200       0.35147300       0.27856800
    97  C          0.40966150       0.56287000       0.00562000
    98  C          0.59033850       0.06287000       0.49438000
    99  C          0.59033850       0.43713000      -0.00562000
   100  C          0.40966150       0.93713000       0.50562000
   101  H          0.37870000       0.45480000       0.97330000
   102  H          0.62130000       0.95480000       0.52670000
   103  H          0.62130000       0.54520000       0.02670000
   104  H          0.37870000       0.04520000       0.47330000
   105  C          0.43796140       0.74107000       0.97096830
   106  C          0.56203860       0.24107000       0.52903170
   107  C          0.56203860       0.25893000       0.02903170
   108  C          0.43796140       0.75893000       0.47096830
   109  H          0.42590000       0.74990000       0.91690000
   110  H          0.57410000       0.24990000       0.58310000
   111  H          0.57410000       0.25010000       0.08310000
   112  H          0.42590000       0.75010000       0.41690000
   113  C          0.48422130       0.90556000       0.01720170
   114  C          0.51577870       0.40556000       0.48279830
   115  C          0.51577870       0.09444000       0.98279830
   116  C          0.48422130       0.59444000       0.51720170
   117  C          0.49917150       0.87577000       0.09681190
   118  C          0.50082850       0.37577000       0.40318810
   119  C          0.50082850       0.12423000       0.90318810
   120  C          0.49917150       0.62423000       0.59681190
   121  H          0.53000000      -0.01990000       0.13080000
   122  H          0.47000000       0.48010000       0.36920000
   123  H          0.47000000       0.01990000       0.86920000
   124  H          0.53000000       0.51990000       0.63080000
   125  C          0.46871160       0.69257000       0.12638190
   126  C          0.53128840       0.19257000       0.37361810
   127  C          0.53128840       0.30743000       0.87361810
   128  C          0.46871160       0.80743000       0.62638190
   129  H          0.48000000       0.67720000       0.18020000
   130  H          0.52000000       0.17720000       0.31980000
   131  H          0.52000000       0.32280000       0.81980000
   132  H          0.48000000       0.82280000       0.68020000
   133  N          0.42425120       0.53785000       0.08197170
   134  N          0.57574880       0.03785000       0.41802830
   135  N          0.57574880       0.46215000       0.91802830
   136  N          0.42425120       0.96215000       0.58197170
   137  C          0.04272170       0.69663000       0.66957820
   138  C          0.95727830       0.19663000       0.83042180
   139  C          0.95727830       0.30337000       0.33042180
   140  C          0.04272170       0.80337000       0.16957820
   141  H          0.03630000       0.67110000       0.71610000
   142  H          0.96370000       0.17110000       0.78390000
   143  H          0.96370000       0.32890000       0.28390000
   144  H          0.03630000       0.82890000       0.21610000
   145  C          0.00945140       0.54383000       0.60558820
   146  C          0.99054860       0.04383000       0.89441180
   147  C          0.99054860       0.45617000       0.39441180
   148  C          0.00945140       0.95617000       0.10558820
   149  H          0.98170000       0.41710000       0.60970000
   150  H          0.01830000       0.91710000       0.89030000
   151  H          0.01830000       0.58290000       0.39030000
   152  H          0.98170000       0.08290000       0.10970000
   153  C          0.01741140       0.57954000       0.53576850
   154  C          0.98258860       0.07954000       0.96423150
   155  C          0.98258860       0.42046000       0.46423150
   156  C          0.01741140       0.92046000       0.03576850
   157  C          0.05865140       0.77293000       0.53398830
   158  C          0.94134860       0.27293000       0.96601170
   159  C          0.94134860       0.22707000       0.46601170
   160  C          0.05865140       0.72707000       0.03398830
   161  H          0.06490000       0.80800000       0.48770000
   162  H          0.93510000       0.30800000       0.01230000
   163  H          0.93510000       0.19200000       0.51230000
   164  H          0.06490000       0.69200000       0.98770000
   165  C          0.09068150       0.91463000       0.60068000
   166  C          0.90931850       0.41463000       0.89932000
   167  C          0.90931850       0.08537000       0.39932000
   168  C          0.09068150       0.58537000       0.10068000
   169  H          0.11880000       0.04250000       0.59840000
   170  H          0.88120000       0.54250000       0.90160000
   171  H          0.88120000       0.95750000       0.40160000
   172  H          0.11880000       0.45750000       0.09840000
   173  N          0.08325120       0.87724000       0.66808860
   174  N          0.91674880       0.37724000       0.83191140
   175  N          0.91674880       0.12276000       0.33191140
   176  N          0.08325120       0.62276000       0.16808860
