data_ULETAI
_symmetry_space_group_name_H-M    'P1'
_symmetry_Int_Tables_number       1
loop_
_symmetry_equiv_pos_site_id
_symmetry_equiv_pos_as_xyz
1 x,y,z
_cell_length_a                   15.73406
_cell_length_b                   7.37003
_cell_length_c                   12.20704
_cell_angle_alpha                90.0
_cell_angle_beta                 107.2134
_cell_angle_gamma                90.0
loop_
_atom_site_label
_atom_site_type_symbol
_atom_site_fract_x
_atom_site_fract_y
_atom_site_fract_z
     1  C          0.71685180       0.56833000       0.38472000
     2  C          0.28314820       0.06833000       0.11528000
     3  C          0.28314820       0.43167000       0.61528000
     4  C          0.71685180       0.93167000       0.88472000
     5  C          0.62594180       0.55484000       0.29832000
     6  C          0.37405820       0.05484000       0.20168000
     7  C          0.37405820       0.44516000       0.70168000
     8  C          0.62594180       0.94516000       0.79832000
     9  H          0.61530000       0.43280000       0.26760000
    10  H          0.38470000       0.93280000       0.23240000
    11  H          0.38470000       0.56720000       0.73240000
    12  H          0.61530000       0.06720000       0.76760000
    13  H          0.62070000       0.63880000       0.23550000
    14  H          0.37930000       0.13880000       0.26450000
    15  H          0.37930000       0.36120000       0.76450000
    16  H          0.62070000       0.86120000       0.73550000
    17  C          0.56002170       0.60303000       0.36322000
    18  C          0.43997830       0.10303000       0.13678000
    19  C          0.43997830       0.39697000       0.63678000
    20  C          0.56002170       0.89697000       0.86322000
    21  H          0.52660000       0.71090000       0.33090000
    22  H          0.47340000       0.21090000       0.16910000
    23  H          0.47340000       0.28910000       0.66910000
    24  H          0.52660000       0.78910000       0.83090000
    25  H          0.51860000       0.50400000       0.35950000
    26  H          0.48140000       0.00400000       0.14050000
    27  H          0.48140000       0.49600000       0.64050000
    28  H          0.51860000      -0.00400000       0.85950000
    29  C          0.61492160       0.63653000       0.48512000
    30  C          0.38507840       0.13653000       0.01488000
    31  C          0.38507840       0.36347000       0.51488000
    32  C          0.61492160       0.86347000       0.98512000
    33  N          0.70371130       0.61842000       0.48805150
    34  N          0.29628870       0.11842000       0.01194850
    35  N          0.29628870       0.38158000       0.51194850
    36  N          0.70371130       0.88158000      -0.01194850
    37  O          0.59037120       0.67173000       0.56639150
    38  O          0.40962880       0.17173000       0.93360850
    39  O          0.40962880       0.32827000       0.43360850
    40  O          0.59037120       0.82827000       0.06639150
    41  O          0.78758130       0.54153000       0.37007160
    42  O          0.21241870       0.04153000       0.12992840
    43  O          0.21241870       0.45847000       0.62992840
    44  O          0.78758130       0.95847000       0.87007160
    45  Br         0.79845200       0.64395300       0.62247200
    46  Br         0.20154800       0.14395300       0.87752800
    47  Br         0.20154800       0.35604700       0.37752800
    48  Br         0.79845200       0.85604700       0.12247200
    49  C          0.62640180       0.12643000       0.48702000
    50  C          0.37359820       0.62643000       0.01298000
    51  C          0.37359820       0.87357000       0.51298000
    52  C          0.62640180       0.37357000       0.98702000
    53  H          0.58090000       0.14700000       0.51980000
    54  H          0.41910000       0.64700000       0.98020000
    55  H          0.41910000       0.85300000       0.48020000
    56  H          0.58090000       0.35300000       0.01980000
    57  C          0.71303170       0.15123000       0.55482000
    58  C          0.28696830       0.65123000       0.94518000
    59  C          0.28696830       0.84877000       0.44518000
    60  C          0.71303170       0.34877000       0.05482000
    61  H          0.72460000       0.18580000       0.63110000
    62  H          0.27540000       0.68580000       0.86890000
    63  H          0.27540000       0.81420000       0.36890000
    64  H          0.72460000       0.31420000       0.13110000
    65  C          0.78206150       0.12453000       0.50918190
    66  C          0.21793850       0.62453000      -0.00918190
    67  C          0.21793850       0.87547000       0.49081810
    68  C          0.78206150       0.37547000       0.00918190
    69  C          0.75951170       0.07213000       0.39492000
    70  C          0.24048830       0.57213000       0.10508000
    71  C          0.24048830       0.92787000       0.60508000
    72  C          0.75951170       0.42787000       0.89492000
    73  H          0.80350000       0.05210000       0.35950000
    74  H          0.19650000       0.55210000       0.14050000
    75  H          0.19650000       0.94790000       0.64050000
    76  H          0.80350000       0.44790000       0.85950000
    77  C          0.67104190       0.05044000       0.33452000
    78  C          0.32895810       0.55044000       0.16548000
    79  C          0.32895810       0.94956000       0.66548000
    80  C          0.67104190       0.44956000       0.83452000
    81  H          0.65740000       0.01580000       0.25800000
    82  H          0.34260000       0.51580000       0.24200000
    83  H          0.34260000      -0.01580000       0.74200000
    84  H          0.65740000       0.48420000       0.75800000
    85  C         -0.00754820       0.10613000       0.75392000
    86  C          0.00754820       0.60613000       0.74608000
    87  C          0.00754820       0.89387000       0.24608000
    88  C         -0.00754820       0.39387000       0.25392000
    89  H          0.00940000       0.07330000       0.83090000
    90  H         -0.00940000       0.57330000       0.66910000
    91  H         -0.00940000       0.92670000       0.16910000
    92  H          0.00940000       0.42670000       0.33090000
    93  C          0.90341160       0.09613000       0.69437190
    94  C          0.09658840       0.59613000       0.80562810
    95  C          0.09658840       0.90387000       0.30562810
    96  C          0.90341160       0.40387000       0.19437190
    97  H          0.86200000       0.05850000       0.73040000
    98  H          0.13800000       0.55850000       0.76960000
    99  H          0.13800000       0.94150000       0.26960000
   100  H          0.86200000       0.44150000       0.23040000
   101  C          0.87692150       0.14363000       0.57878190
   102  C          0.12307850       0.64363000       0.92121810
   103  C          0.12307850       0.85637000       0.42121810
   104  C          0.87692150       0.35637000       0.07878190
   105  C          0.94228170       0.20233000       0.53312000
   106  C          0.05771830       0.70233000       0.96688000
   107  C          0.05771830       0.79767000       0.46688000
   108  C          0.94228170       0.29767000       0.03312000
   109  H          0.92730000       0.23820000       0.45680000
   110  H          0.07270000       0.73820000       0.04320000
   111  H          0.07270000       0.76180000       0.54320000
   112  H          0.92730000       0.26180000       0.95680000
   113  C          0.02992180       0.20823000       0.60032000
   114  C          0.97007820       0.70823000       0.89968000
   115  C          0.97007820       0.79177000       0.39968000
   116  C          0.02992180       0.29177000       0.10032000
   117  H          0.07280000       0.24830000       0.56730000
   118  H          0.92720000       0.74830000       0.93270000
   119  H          0.92720000       0.75170000       0.43270000
   120  H          0.07280000       0.25170000       0.06730000
   121  N          0.60409160       0.07533000       0.37812000
   122  N          0.39590840       0.57533000       0.12188000
   123  N          0.39590840       0.92467000       0.62188000
   124  N          0.60409160       0.42467000       0.87812000
   125  N          0.05580140       0.15923000       0.70973180
   126  N          0.94419860       0.65923000       0.79026820
   127  N          0.94419860       0.84077000       0.29026820
   128  N          0.05580140       0.34077000       0.20973180
