data_ULIPOU
_symmetry_space_group_name_H-M    'P1'
_symmetry_Int_Tables_number       1
loop_
_symmetry_equiv_pos_site_id
_symmetry_equiv_pos_as_xyz
1 x,y,z
_cell_length_a                   8.5362
_cell_length_b                   29.2192
_cell_length_c                   9.0732
_cell_angle_alpha                90.0
_cell_angle_beta                 105.402
_cell_angle_gamma                90.0
loop_
_atom_site_label
_atom_site_type_symbol
_atom_site_fract_x
_atom_site_fract_y
_atom_site_fract_z
     1  Br         0.10101700       0.23090000       0.48785600
     2  Br         0.89898300       0.73090000       0.51214400
     3  O          0.00158000       0.18182000       0.15005000
     4  O         -0.00158000       0.68182000       0.84995000
     5  O          0.05196000       0.18182000       0.81386000
     6  O          0.94804000       0.68182000       0.18614000
     7  C          0.04738000       0.13702000       0.13876000
     8  C          0.95262000       0.63702000       0.86124000
     9  C          0.16161000       0.11553000       0.26148000
    10  C          0.83839000       0.61553000       0.73852000
    11  C          0.21269000       0.07253000       0.24908000
    12  C          0.78731000       0.57253000       0.75092000
    13  C          0.15308000       0.04772000       0.11598000
    14  C          0.84692000       0.54772000       0.88402000
    15  C          0.20410000       0.00223000       0.09810000
    16  C          0.79590000       0.50223000       0.90190000
    17  C          0.13910000       0.97857000       0.96410000
    18  C          0.86090000       0.47857000       0.03590000
    19  C          0.03310000      -0.00163000       0.84510000
    20  C          0.96690000       0.49837000       0.15490000
    21  C          0.97428000       0.04232000       0.85668000
    22  C          0.02572000       0.54232000       0.14332000
    23  C          0.03287000       0.06822000      -0.01053000
    24  C          0.96713000       0.56822000       0.01053000
    25  C         -0.01653000       0.11362000       0.00526000
    26  C          0.01653000       0.61362000      -0.00526000
    27  C          0.85397000       0.13622000       0.88216000
    28  C          0.14603000       0.63622000       0.11784000
    29  C          0.68477000       0.12342000       0.85555000
    30  C          0.31523000       0.62342000       0.14445000
    31  C          0.63768000       0.08752000       0.93906000
    32  C          0.36232000       0.58752000       0.06094000
    33  C          0.47509000       0.07572000       0.91098000
    34  C          0.52491000       0.57572000       0.08902000
    35  C          0.35499000       0.10053000       0.80498000
    36  C          0.64501000       0.60053000       0.19502000
    37  C          0.39699000       0.13493000       0.72469000
    38  C          0.60301000       0.63493000       0.27531000
    39  C          0.56518000       0.14782000       0.75076000
    40  C          0.43482000       0.64782000       0.24924000
    41  C          0.60219000       0.18362000       0.66647000
    42  C          0.39781000       0.68362000       0.33353000
    43  C          0.76798000       0.19592000       0.69027000
    44  C          0.23202000       0.69592000       0.30973000
    45  C          0.89057000       0.17092000       0.79426000
    46  C          0.10943000       0.67092000       0.20574000
    47  H          0.20330000       0.13200000       0.35410000
    48  H          0.79670000       0.63200000       0.64590000
    49  H          0.29000000       0.05900000       0.33270000
    50  H          0.71000000       0.55900000       0.66730000
    51  H          0.28200000       0.98780000       0.17920000
    52  H          0.71800000       0.48780000       0.82080000
    53  H          0.17180000       0.94790000       0.95550000
    54  H          0.82820000       0.44790000       0.04450000
    55  H         -0.00380000       0.98220000       0.75160000
    56  H          0.00380000       0.48220000       0.24840000
    57  H          0.89340000       0.05480000       0.77290000
    58  H          0.10660000       0.55480000       0.22710000
    59  H          0.71700000       0.07140000       0.01410000
    60  H          0.28300000       0.57140000      -0.01410000
    61  H          0.44440000       0.05070000       0.96370000
    62  H          0.55560000       0.55070000       0.03630000
    63  H          0.24380000       0.09290000       0.79030000
    64  H          0.75620000       0.59290000       0.20970000
    65  H          0.31520000       0.15070000       0.65020000
    66  H          0.68480000       0.65070000       0.34980000
    67  H          0.51900000       0.19950000       0.59410000
    68  H          0.48100000       0.69950000       0.40590000
    69  H          0.79630000       0.22100000       0.63630000
    70  H          0.20370000       0.72100000       0.36370000
    71  O          0.84466000       0.31372000       0.53365000
    72  O          0.15534000       0.81372000       0.46635000
    73  O          0.43547000       0.29132000       0.62547000
    74  O          0.56453000       0.79132000       0.37453000
    75  C          0.84857000       0.32162000       0.68306000
    76  C          0.15143000       0.82162000       0.31694000
    77  C         -0.01252000       0.30863000       0.79988000
    78  C          0.01252000       0.80863000       0.20012000
    79  C         -0.01190000       0.31683000       0.95138000
    80  C          0.01190000       0.81683000       0.04862000
    81  C          0.86049000       0.33682000      -0.01114000
    82  C          0.13951000       0.83682000       0.01114000
    83  C          0.85510000       0.34593000       0.14287000
    84  C          0.14490000       0.84593000       0.85713000
    85  C          0.72710000       0.36503000       0.17777000
    86  C          0.27290000       0.86503000       0.82223000
    87  C          0.59010000       0.37743000       0.06297000
    88  C          0.40990000       0.87743000       0.93703000
    89  C          0.58858000       0.37002000       0.90956000
    90  C          0.41142000       0.87002000       0.09044000
    91  C          0.71877000       0.35032000       0.87106000
    92  C          0.28123000       0.85032000       0.12894000
    93  C          0.71907000       0.34222000       0.71366000
    94  C          0.28093000       0.84222000       0.28634000
    95  C          0.57767000       0.35712000       0.59056000
    96  C          0.42233000       0.85712000       0.40944000
    97  C          0.58167000       0.39922000       0.51316000
    98  C          0.41833000       0.89922000       0.48684000
    99  C          0.72089000       0.42782000       0.54917000
   100  C          0.27911000       0.92782000       0.45083000
   101  C          0.72410000       0.46863000       0.47710000
   102  C          0.27590000       0.96863000       0.52290000
   103  C          0.58910000       0.48303000       0.36110000
   104  C          0.41090000       0.98303000       0.63890000
   105  C          0.45110000       0.45643000       0.32078000
   106  C          0.54890000       0.95643000       0.67922000
   107  C          0.44279000       0.41442000       0.39516000
   108  C          0.55721000       0.91442000       0.60484000
   109  C          0.30610000       0.38643000       0.35718000
   110  C          0.69390000       0.88643000       0.64282000
   111  C          0.30089000       0.34573000       0.43238000
   112  C          0.69911000       0.84573000       0.56762000
   113  C          0.43828000       0.33102000       0.54717000
   114  C          0.56172000       0.83102000       0.45283000
   115  H          0.07800000       0.29460000       0.77550000
   116  H          0.92200000       0.79460000       0.22450000
   117  H          0.08040000       0.30820000       0.03070000
   118  H          0.91960000       0.80820000       0.96930000
   119  H          0.94720000       0.33790000       0.22410000
   120  H          0.05280000       0.83790000       0.77590000
   121  H          0.72990000       0.37030000       0.28150000
   122  H          0.27010000       0.87030000       0.71850000
   123  H          0.49800000       0.39070000       0.08770000
   124  H          0.50200000       0.89070000       0.91230000
   125  H          0.49560000       0.37860000       0.83050000
   126  H          0.50440000       0.87860000       0.16950000
   127  H          0.81480000       0.41840000       0.62520000
   128  H          0.18520000       0.91840000       0.37480000
   129  H          0.81770000       0.48750000       0.50590000
   130  H          0.18230000       0.98750000       0.49410000
   131  H          0.59240000       0.51120000       0.31000000
   132  H          0.40760000       0.01120000       0.69000000
   133  H          0.36040000       0.46640000       0.24170000
   134  H          0.63960000       0.96640000       0.75830000
   135  H          0.21440000       0.39530000       0.27720000
   136  H          0.78560000       0.89530000       0.72280000
   137  H          0.20490000       0.32760000       0.40710000
   138  H          0.79510000       0.82760000       0.59290000
   139  N          0.51066000       0.22792000       0.14076000
   140  N          0.48934000       0.72792000       0.85924000
   141  C          0.54820000       0.25743000       0.28610000
   142  C          0.45180000       0.75743000       0.71390000
   143  C          0.64510000       0.23444000       0.05910000
   144  C          0.35490000       0.73444000       0.94090000
   145  C          0.34719000       0.24264000       0.03420000
   146  C          0.65281000       0.74264000       0.96580000
   147  C          0.50189000       0.17752000       0.18410000
   148  C          0.49811000       0.67752000       0.81590000
   149  C          0.66089000       0.15722000       0.27831000
   150  C          0.33911000       0.65722000       0.72169000
   151  C          0.63310000       0.10952000       0.33310000
   152  C          0.36690000       0.60952000       0.66690000
   153  C          0.79210000       0.08733000       0.42020000
   154  C          0.20790000       0.58733000       0.57980000
   155  C          0.77420000       0.03603000       0.43810000
   156  C          0.22580000       0.53603000       0.56190000
   157  C          0.79130000       0.00983000       0.29910000
   158  C          0.20870000       0.50983000       0.70090000
   159  C          0.79030000       0.95827000       0.32320000
   160  C          0.20970000       0.45827000       0.67680000
   161  C          0.82530000       0.93225000       0.18930000
   162  C          0.17470000       0.43225000       0.81070000
   163  H          0.64900000       0.24860000       0.35120000
   164  H          0.35100000       0.74860000       0.64880000
   165  H          0.55320000       0.28890000       0.25730000
   166  H          0.44680000       0.78890000       0.74270000
   167  H          0.46430000       0.25380000       0.33500000
   168  H          0.53570000       0.75380000       0.66500000
   169  H          0.74640000       0.22580000       0.12500000
   170  H          0.25360000       0.72580000       0.87500000
   171  H          0.62210000       0.21600000       0.96930000
   172  H          0.37790000       0.71600000       0.03070000
   173  H          0.64900000       0.26570000       0.03080000
   174  H          0.35100000       0.76570000       0.96920000
   175  H          0.35170000       0.27380000       0.00660000
   176  H          0.64830000       0.77380000      -0.00660000
   177  H          0.32440000       0.22420000       0.94340000
   178  H          0.67560000       0.72420000       0.05660000
   179  H          0.26370000       0.23830000       0.08360000
   180  H          0.73630000       0.73830000       0.91640000
   181  H          0.42450000       0.17490000       0.24130000
   182  H          0.57550000       0.67490000       0.75870000
   183  H          0.46750000       0.16040000       0.09230000
   184  H          0.53250000       0.66040000       0.90770000
   185  H          0.73590000       0.15540000       0.21710000
   186  H          0.26410000       0.65540000       0.78290000
   187  H          0.70500000       0.17620000       0.36420000
   188  H          0.29500000       0.67620000       0.63580000
   189  H          0.56220000       0.11160000       0.39780000
   190  H          0.43780000       0.61160000       0.60220000
   191  H          0.58330000       0.09110000       0.24650000
   192  H          0.41670000       0.59110000       0.75350000
   193  H          0.87070000       0.09250000       0.36620000
   194  H          0.12930000       0.59250000       0.63380000
   195  H          0.82520000       0.10080000       0.51860000
   196  H          0.17480000       0.60080000       0.48140000
   197  H          0.85390000       0.02590000       0.52540000
   198  H          0.14610000       0.52590000       0.47460000
   199  H          0.66830000       0.03000000       0.45210000
   200  H          0.33170000       0.53000000       0.54790000
   201  H          0.70310000       0.01750000       0.21380000
   202  H          0.29690000       0.51750000       0.78620000
   203  H          0.89050000       0.01830000       0.27860000
   204  H          0.10950000       0.51830000       0.72140000
   205  H          0.87200000       0.95080000       0.41330000
   206  H          0.12800000       0.45080000       0.58670000
   207  H          0.68720000       0.94940000       0.33370000
   208  H          0.31280000       0.44940000       0.66630000
   209  H          0.82420000       0.90030000       0.20890000
   210  H          0.17580000       0.40030000       0.79110000
   211  H          0.74240000       0.93920000       0.09850000
   212  H          0.25760000       0.43920000       0.90150000
   213  H          0.92740000       0.94100000       0.17740000
   214  H          0.07260000       0.44100000       0.82260000
