data_ULOKOV
_symmetry_space_group_name_H-M    'P1'
_symmetry_Int_Tables_number       1
loop_
_symmetry_equiv_pos_site_id
_symmetry_equiv_pos_as_xyz
1 x,y,z
_cell_length_a                   6.91605
_cell_length_b                   7.70215
_cell_length_c                   10.63647
_cell_angle_alpha                80.5284
_cell_angle_beta                 78.7814
_cell_angle_gamma                85.9914
loop_
_atom_site_label
_atom_site_type_symbol
_atom_site_fract_x
_atom_site_fract_y
_atom_site_fract_z
     1  I          0.17611300       0.16453200       0.78429116
     2  I          0.82388700       0.83546800       0.21570884
     3  F          0.09824000       0.81458000       0.93069180
     4  F          0.90176000       0.18542000       0.06930820
     5  F          0.23953000       0.97477000       0.03409190
     6  F          0.76047000       0.02523000       0.96590810
     7  C          0.09915000       0.97836000       0.95973000
     8  C          0.90085000       0.02164000       0.04027000
     9  S          0.25782120       0.71642100       0.40305700
    10  S          0.74217880       0.28357900       0.59694300
    11  N          0.24984000       0.41523000       0.55132000
    12  N          0.75016000       0.58477000       0.44868000
    13  C          0.29374000       0.53014000       0.32893000
    14  C          0.70626000       0.46986000       0.67107000
    15  C          0.32615000       0.51535000       0.19683000
    16  C          0.67385000       0.48465000       0.80317000
    17  C          0.34825000       0.34875000       0.16283000
    18  C          0.65175000       0.65125000       0.83717000
    19  C          0.34045000       0.19885000       0.25733000
    20  C          0.65955000       0.80115000       0.74267000
    21  C          0.30845000       0.21294000       0.38743000
    22  C          0.69155000       0.78706000       0.61257000
    23  C          0.28504000       0.37994000       0.42403000
    24  C          0.71496000       0.62006000       0.57597000
    25  C          0.23234000       0.58324000       0.55403000
    26  C          0.76766000       0.41676000       0.44597000
    27  C          0.19126000       0.66385000       0.67503000
    28  C          0.80874000       0.33615000       0.32497000
    29  H          0.33760000       0.60950000       0.13340000
    30  H          0.66240000       0.39050000       0.86660000
    31  H          0.34950000       0.33550000       0.08340000
    32  H          0.65050000       0.66450000       0.91660000
    33  H          0.35260000       0.08860000       0.23740000
    34  H          0.64740000       0.91140000       0.76260000
    35  H          0.29560000       0.10650000       0.46240000
    36  H          0.70440000       0.89350000       0.53760000
    37  H          0.06270000       0.64360000       0.72950000
    38  H          0.93730000       0.35640000       0.27050000
    39  H          0.26410000       0.61680000       0.72860000
    40  H          0.73590000       0.38320000       0.27140000
    41  H          0.19870000       0.78970000       0.65850000
    42  H          0.80130000       0.21030000       0.34150000
