data_ULOKUB
_symmetry_space_group_name_H-M    'P1'
_symmetry_Int_Tables_number       1
loop_
_symmetry_equiv_pos_site_id
_symmetry_equiv_pos_as_xyz
1 x,y,z
_cell_length_a                   6.25365
_cell_length_b                   6.44037
_cell_length_c                   7.50677
_cell_angle_alpha                106.8435
_cell_angle_beta                 107.5356
_cell_angle_gamma                93.9256
loop_
_atom_site_label
_atom_site_type_symbol
_atom_site_fract_x
_atom_site_fract_y
_atom_site_fract_z
     1  I          0.80560500       0.79340500       0.16898500
     2  I          0.19439500       0.20659500       0.83101500
     3  C          0.01079000       0.88661000       0.01128000
     4  C         -0.01079000       0.11339000      -0.01128000
     5  F          0.23326000       0.89103000       0.10676000
     6  F          0.76674000       0.10897000       0.89324000
     7  F          0.95383000       0.73784000       0.83005000
     8  F          0.04617000       0.26216000       0.16995000
     9  N          0.57341000       0.61301000       0.39088000
    10  N          0.42659000       0.38699000       0.60912000
    11  C          0.43089000       0.68379000       0.48689000
    12  C          0.56911000       0.31621000       0.51311000
    13  H          0.37740000       0.81350000       0.47980000
    14  H          0.62260000       0.18650000       0.52020000
    15  C          0.64048900       0.42668900       0.40449000
    16  C          0.35951100       0.57331100       0.59551000
    17  H          0.73850000       0.36870000       0.33870000
    18  H          0.26150000       0.63130000       0.66130000
