data_UMECIY
_symmetry_space_group_name_H-M    'P1'
_symmetry_Int_Tables_number       1
loop_
_symmetry_equiv_pos_site_id
_symmetry_equiv_pos_as_xyz
1 x,y,z
_cell_length_a                   9.4092
_cell_length_b                   11.4493
_cell_length_c                   13.1983
_cell_angle_alpha                119.272
_cell_angle_beta                 112.332
_cell_angle_gamma                83.362
loop_
_atom_site_label
_atom_site_type_symbol
_atom_site_fract_x
_atom_site_fract_y
_atom_site_fract_z
     1  I          0.48110200       0.59793200       0.19016200
     2  I          0.51889800       0.40206800       0.80983800
     3  O          0.34872000       0.58882000       0.03222000
     4  O          0.65128000       0.41118000       0.96778000
     5  C          0.31203000       0.48832000       0.18552000
     6  C          0.68797000       0.51168000       0.81448000
     7  C          0.16413000       0.53163000       0.16373000
     8  C          0.83587000       0.46837000       0.83627000
     9  C          0.04733000       0.45433000       0.15113000
    10  C          0.95267000       0.54567000       0.84887000
    11  C          0.08043000       0.33713000       0.16033000
    12  C          0.91957000       0.66287000       0.83967000
    13  C          0.22894000       0.29593000       0.18113000
    14  C          0.77106000       0.70407000       0.81887000
    15  C          0.34763000       0.37043000       0.19303000
    16  C          0.65237000       0.62957000       0.80697000
    17  H          0.33140000       0.65640000       0.04640000
    18  H          0.66860000       0.34360000       0.95360000
    19  H          0.14300000       0.61160000       0.15760000
    20  H          0.85700000       0.38840000       0.84240000
    21  H          0.94550000       0.48160000       0.13620000
    22  H          0.05450000       0.51840000       0.86380000
    23  H          0.00110000       0.28530000       0.15240000
    24  H         -0.00110000       0.71470000       0.84760000
    25  H          0.25010000       0.21590000       0.18720000
    26  H          0.74990000       0.78410000       0.81280000
    27  H          0.44880000       0.34180000       0.20570000
    28  H          0.55120000       0.65820000       0.79430000
    29  F          0.85402000       0.06932000       0.14362000
    30  F          0.14598000       0.93068000       0.85638000
    31  F          0.95272000       0.26732000       0.32302000
    32  F          0.04728000       0.73268000       0.67698000
    33  F          0.69382000       0.20512000       0.23732000
    34  F          0.30618000       0.79488000       0.76268000
    35  F          0.86572000       0.09372000       0.32832000
    36  F          0.13428000       0.90628000       0.67168000
    37  B          0.84044000       0.16003000       0.25873000
    38  B          0.15956000       0.83997000       0.74127000
    39  O          0.65802000       0.57252000       0.38342000
    40  O          0.34198000       0.42748000       0.61658000
    41  O          0.81002000       0.66762000       0.28042000
    42  O          0.18998000       0.33238000       0.71958000
    43  O          0.62112000       0.81702000       0.16872000
    44  O          0.37888000       0.18298000       0.83128000
    45  O          0.29142000       0.84042000       0.09702000
    46  O          0.70858000       0.15958000       0.90298000
    47  O          0.24442000       0.87202000       0.31462000
    48  O          0.75558000       0.12798000       0.68538000
    49  O          0.46512000       0.78052000       0.47752000
    50  O          0.53488000       0.21948000       0.52248000
    51  C          0.80863000       0.54043000       0.37693000
    52  C          0.19137000       0.45957000       0.62307000
    53  C          0.89223000       0.65443000       0.38943000
    54  C          0.10777000       0.34557000       0.61057000
    55  C          0.87013000       0.77673000       0.28073000
    56  C          0.12987000       0.22327000       0.71927000
    57  C          0.76993000       0.78013000       0.16303000
    58  C          0.23007000       0.21987000       0.83697000
    59  C          0.53083000       0.85443000       0.07633000
    60  C          0.46917000       0.14557000       0.92367000
    61  C          0.40073000       0.93083000       0.11203000
    62  C          0.59927000       0.06917000       0.88797000
    63  C          0.16663000       0.90383000       0.13623000
    64  C          0.83337000       0.09617000       0.86377000
    65  C          0.21123000       0.97253000       0.27603000
    66  C          0.78877000       0.02747000       0.72397000
    67  C          0.27763000       0.93193000       0.44583000
    68  C          0.72237000       0.06807000       0.55417000
    69  C          0.31963000       0.82653000       0.48563000
    70  C          0.68037000       0.17347000       0.51437000
    71  C          0.50843000       0.67903000       0.51323000
    72  C          0.49157000       0.32097000       0.48677000
    73  C          0.66583000       0.64073000       0.51033000
    74  C          0.33417000       0.35927000       0.48967000
    75  H          0.86860000       0.52140000       0.44260000
    76  H          0.13140000       0.47860000       0.55740000
    77  H          0.79660000       0.46340000       0.29850000
    78  H          0.20340000       0.53660000       0.70150000
    79  H         -0.00510000       0.63470000       0.39500000
    80  H          0.00510000       0.36530000       0.60500000
    81  H          0.89380000       0.73530000       0.46220000
    82  H          0.10620000       0.26470000       0.53780000
    83  H          0.86930000       0.85880000       0.35150000
    84  H          0.13070000       0.14120000       0.64850000
    85  H          0.97280000       0.76360000       0.28330000
    86  H          0.02720000       0.23640000       0.71670000
    87  H          0.75960000       0.69400000       0.09270000
    88  H          0.24040000       0.30600000       0.90730000
    89  H          0.81480000       0.84440000       0.15560000
    90  H          0.18520000       0.15560000       0.84440000
    91  H          0.59360000       0.90970000       0.07190000
    92  H          0.40640000       0.09030000       0.92810000
    93  H          0.48990000       0.77600000      -0.00280000
    94  H          0.51010000       0.22400000       0.00280000
    95  H          0.35120000       0.96970000       0.05950000
    96  H          0.64880000       0.03030000       0.94050000
    97  H          0.44050000      -0.00020000       0.19680000
    98  H          0.55950000       0.00020000       0.80320000
    99  H          0.13350000       0.96890000       0.10910000
   100  H          0.86650000       0.03110000       0.89090000
   101  H          0.08410000       0.83720000       0.09800000
   102  H          0.91590000       0.16280000       0.90200000
   103  H          0.12850000       0.02010000       0.29760000
   104  H          0.87150000       0.97990000       0.70240000
   105  H          0.29990000       0.03360000       0.31610000
   106  H          0.70010000       0.96640000       0.68390000
   107  H          0.36130000      -0.00090000       0.49070000
   108  H          0.63870000       0.00090000       0.50930000
   109  H          0.18930000       0.97160000       0.46280000
   110  H          0.81070000       0.02840000       0.53720000
   111  H          0.24250000       0.75310000       0.43240000
   112  H          0.75750000       0.24690000       0.56760000
   113  H          0.32670000       0.86350000       0.56950000
   114  H          0.67330000       0.13650000       0.43050000
   115  H          0.51090000       0.71210000       0.59540000
   116  H          0.48910000       0.28790000       0.40460000
   117  H          0.43580000       0.60250000       0.45650000
   118  H          0.56420000       0.39750000       0.54350000
   119  H          0.70190000       0.58290000       0.54580000
   120  H          0.29810000       0.41710000       0.45420000
   121  H          0.73490000       0.71940000       0.55730000
   122  H          0.26510000       0.28060000       0.44270000
