data_UMESOX
_symmetry_space_group_name_H-M    'P1'
_symmetry_Int_Tables_number       1
loop_
_symmetry_equiv_pos_site_id
_symmetry_equiv_pos_as_xyz
1 x,y,z
_cell_length_a                   7.15334
_cell_length_b                   7.76834
_cell_length_c                   11.197313
_cell_angle_alpha                106.4309
_cell_angle_beta                 90.5687
_cell_angle_gamma                97.5584
loop_
_atom_site_label
_atom_site_type_symbol
_atom_site_fract_x
_atom_site_fract_y
_atom_site_fract_z
     1  S          0.41150700       0.23563700       0.86263500
     2  S          0.58849300       0.76436300       0.13736500
     3  S          0.45415700       0.61165700       0.84428500
     4  S          0.54584300       0.38834300       0.15571500
     5  S          0.23485800       0.07331700       0.60648500
     6  S          0.76514200       0.92668300       0.39351500
     7  S          0.27154800       0.52026700       0.59517500
     8  S          0.72845200       0.47973300       0.40482500
     9  C          0.33823000       0.43943000       0.71749170
    10  C          0.66177000       0.56057000       0.28250830
    11  C          0.32042000       0.26902000       0.72539160
    12  C          0.67958000       0.73098000       0.27460840
    13  C          0.47063000       0.46813000       0.93958180
    14  C          0.52937000       0.53187000       0.06041820
    15  C          0.30814000       0.15733000       0.47632000
    16  C          0.69186000       0.84267000       0.52368000
    17  C          0.21134000       0.31393000       0.46722000
    18  C          0.78866000       0.68607000       0.53278000
    19  H          0.27130000       0.06130000       0.41520000
    20  H          0.72870000       0.93870000       0.58480000
    21  H          0.44540000       0.18230000       0.48520000
    22  H          0.55460000       0.81770000       0.51480000
    23  H          0.07540000       0.28730000       0.46820000
    24  H          0.92460000       0.71270000       0.53180000
    25  H          0.25630000       0.36030000       0.39620000
    26  H          0.74370000       0.63970000       0.60380000
    27  C          0.95353000       0.31462000       0.94677180
    28  C          0.04647000       0.68538000       0.05322820
    29  C          0.92992000       0.43492000       0.87653160
    30  C          0.07008000       0.56508000       0.12346840
    31  N          0.79113000       0.31393000       0.64957170
    32  N          0.20887000       0.68607000       0.35042830
    33  C          0.85323000       0.36702000       0.74924180
    34  C          0.14677000       0.63298000       0.25075820
    35  N          0.87333000       0.96978000       0.84322000
    36  N          0.12667000       0.03022000       0.15678000
    37  C         -0.02297000       0.62102000       0.93062180
    38  C          0.02297000       0.37898000       0.06937820
    39  C          0.90763000       0.12223000       0.88980190
    40  C          0.09237000       0.87777000       0.11019810
    41  H          0.95730000       0.70330000       0.88391800
    42  H          0.04270000       0.29670000       0.11608200
