data_UMIQIR
_symmetry_space_group_name_H-M    'P1'
_symmetry_Int_Tables_number       1
loop_
_symmetry_equiv_pos_site_id
_symmetry_equiv_pos_as_xyz
1 x,y,z
_cell_length_a                   5.06501
_cell_length_b                   8.0922
_cell_length_c                   8.9522
_cell_angle_alpha                113.862
_cell_angle_beta                 102.0401
_cell_angle_gamma                94.2901
loop_
_atom_site_label
_atom_site_type_symbol
_atom_site_fract_x
_atom_site_fract_y
_atom_site_fract_z
     1  Cl         0.71843900       0.91510300       0.61974400
     2  Cl         0.28156100       0.08489700       0.38025600
     3  O          0.50583000       0.22902180       0.16430170
     4  O          0.49417000       0.77097820       0.83569830
     5  H          0.54830000       0.26640000       0.09840000
     6  H          0.45170000       0.73360000       0.90160000
     7  O          0.25083000       0.14998180       0.84064840
     8  O          0.74917000       0.85001820       0.15935160
     9  C          0.13134000       0.07842000       0.90968000
    10  C          0.86866000       0.92158000       0.09032000
    11  C          0.86286000       0.95638000       0.82648000
    12  C          0.13714000       0.04362000       0.17352000
    13  C          0.26314000       0.11852000       0.09142000
    14  C          0.73686000       0.88148000       0.90858000
    15  N          0.80193000       0.41102000       0.04252000
    16  N          0.19807000       0.58898000       0.95748000
    17  C          0.03634000       0.51482000       0.15972000
    18  C         -0.03634000       0.48518000       0.84028000
    19  C          0.76854000       0.39832000       0.88638000
    20  C          0.23146000       0.60168000       0.11362000
    21  H          0.60790000       0.32850000       0.80470000
    22  H          0.39210000       0.67150000       0.19530000
    23  C          0.07464000       0.53653000       0.33762000
    24  C          0.92536000       0.46347000       0.66238000
    25  H          0.00440000       0.64270000       0.40100000
    26  H         -0.00440000       0.35730000       0.59900000
    27  H          0.26630000       0.55140000       0.38920000
    28  H          0.73370000       0.44860000       0.61080000
    29  H         -0.02250000       0.42930000       0.33660000
    30  H          0.02250000       0.57070000       0.66340000
