data_UNAYIU
_symmetry_space_group_name_H-M    'P1'
_symmetry_Int_Tables_number       1
loop_
_symmetry_equiv_pos_site_id
_symmetry_equiv_pos_as_xyz
1 x,y,z
_cell_length_a                   11.31193
_cell_length_b                   5.138901
_cell_length_c                   26.60108
_cell_angle_alpha                90.0
_cell_angle_beta                 101.09901
_cell_angle_gamma                90.0
loop_
_atom_site_label
_atom_site_type_symbol
_atom_site_fract_x
_atom_site_fract_y
_atom_site_fract_z
     1  O          0.95833800       0.61549180       0.09606300
     2  O          0.04166200       0.11549180       0.40393700
     3  O          0.04166200       0.38450820       0.90393700
     4  O          0.95833800       0.88450820       0.59606300
     5  H         -0.00868600       0.45930000       0.08946000
     6  H          0.00868600       0.95930000       0.41054000
     7  H          0.00868600       0.54070000       0.91054000
     8  H         -0.00868600       0.04070000       0.58946000
     9  O          0.47617800       0.69458180       0.41428300
    10  O          0.52382200       0.19458180       0.08571700
    11  O          0.52382200       0.30541820       0.58571700
    12  O          0.47617800       0.80541820       0.91428300
    13  O          0.73918800      -0.02025170       0.46701300
    14  O          0.26081200       0.47974830       0.03298700
    15  O          0.26081200       0.02025170       0.53298700
    16  O          0.73918800       0.52025170       0.96701300
    17  C          0.91314110       0.60242000       0.13979500
    18  C          0.08685890       0.10242000       0.36020500
    19  C          0.08685890       0.39758000       0.86020500
    20  C          0.91314110       0.89758000       0.63979500
    21  C          0.83275110       0.79402000       0.14888500
    22  C          0.16724890       0.29402000       0.35111500
    23  C          0.16724890       0.20598000       0.85111500
    24  C          0.83275110       0.70598000       0.64888500
    25  H          0.81230600       0.93284300       0.12521900
    26  H          0.18769400       0.43284300       0.37478100
    27  H          0.18769400       0.06715700       0.87478100
    28  H          0.81230600       0.56715700       0.62521900
    29  C          0.78255110       0.78242000       0.19243500
    30  C          0.21744890       0.28242000       0.30756500
    31  C          0.21744890       0.21758000       0.80756500
    32  C          0.78255110       0.71758000       0.69243500
    33  H          0.72811500       0.91486500       0.19818000
    34  H          0.27188500       0.41486500       0.30182000
    35  H          0.27188500       0.08513500       0.80182000
    36  H          0.72811500       0.58513500       0.69818000
    37  C          0.80976110       0.58132000       0.22808500
    38  C          0.19023890       0.08132000       0.27191500
    39  C          0.19023890       0.41868000       0.77191500
    40  C          0.80976110       0.91868000       0.72808500
    41  C          0.89439110       0.39572000       0.21935500
    42  C          0.10560890       0.89572000       0.28064500
    43  C          0.10560890       0.60428000       0.78064500
    44  C          0.89439110       0.10428000       0.71935500
    45  H          0.91711300       0.26038700       0.24362600
    46  H          0.08288700       0.76038700       0.25637400
    47  H          0.08288700       0.73961300       0.75637400
    48  H          0.91711300       0.23961300       0.74362600
    49  C          0.94556110       0.40542000       0.17613500
    50  C          0.05443890       0.90542000       0.32386500
    51  C          0.05443890       0.59458000       0.82386500
    52  C          0.94556110       0.09458000       0.67613500
    53  H          0.00292100       0.27775600       0.17111200
    54  H         -0.00292100       0.77775600       0.32888800
    55  H         -0.00292100       0.72224400       0.82888800
    56  H          0.00292100       0.22224400       0.67111200
    57  C          0.74937110       0.57052000       0.27211500
    58  C          0.25062890       0.07052000       0.22788500
    59  C          0.25062890       0.42948000       0.72788500
    60  C          0.74937110       0.92948000       0.77211500
    61  H          0.69935100       0.71377500       0.27659000
    62  H          0.30064900       0.21377500       0.22341000
    63  H          0.30064900       0.28622500       0.72341000
    64  H          0.69935100       0.78622500       0.77659000
    65  C          0.75784110       0.37883000       0.30654500
    66  C          0.24215890       0.87883000       0.19345500
    67  C          0.24215890       0.62117000       0.69345500
    68  C          0.75784110       0.12117000       0.80654500
    69  H          0.80656800       0.23417900       0.30152000
    70  H          0.19343200       0.73417900       0.19848000
    71  H          0.19343200       0.76582100       0.69848000
    72  H          0.80656800       0.26582100       0.80152000
    73  C          0.69962110       0.36832000       0.35141500
    74  C          0.30037890       0.86832000       0.14858500
    75  C          0.30037890       0.63168000       0.64858500
    76  C          0.69962110       0.13168000       0.85141500
    77  C          0.60964110       0.54562000       0.35877500
    78  C          0.39035890       0.04562000       0.14122500
    79  C          0.39035890       0.45438000       0.64122500
    80  C          0.60964110       0.95438000       0.85877500
    81  H          0.58055200       0.67250800       0.33342000
    82  H          0.41944800       0.17250800       0.16658000
    83  H          0.41944800       0.32749200       0.66658000
    84  H          0.58055200       0.82749200       0.83342000
    85  C          0.56404110       0.53282000       0.40346500
    86  C          0.43595890       0.03282000       0.09653500
    87  C          0.43595890       0.46718000       0.59653500
    88  C          0.56404110       0.96718000       0.90346500
    89  C          0.60604110       0.34912000       0.44159500
    90  C          0.39395890       0.84912000       0.05840500
    91  C          0.39395890       0.65088000       0.55840500
    92  C          0.60604110       0.15088000       0.94159500
    93  H          0.57597700       0.34650900       0.47255700
    94  H          0.42402300       0.84650900       0.02744300
    95  H          0.42402300       0.65349100       0.52744300
    96  H          0.57597700       0.15349100       0.97255700
    97  C          0.69214110       0.17162000       0.43330500
    98  C          0.30785890       0.67162000       0.06669500
    99  C          0.30785890       0.82838000       0.56669500
   100  C          0.69214110       0.32838000       0.93330500
   101  C          0.73785110       0.17972000       0.38815500
   102  C          0.26214890       0.67972000       0.11184500
   103  C          0.26214890       0.82028000       0.61184500
   104  C          0.73785110       0.32028000       0.88815500
   105  H          0.79578100       0.05452600       0.38257700
   106  H          0.20421900       0.55452600       0.11742300
   107  H          0.20421900       0.94547400       0.61742300
   108  H          0.79578100       0.44547400       0.88257700
   109  C          0.42098120       0.86793000       0.37446500
   110  C          0.57901880       0.36793000       0.12553500
   111  C          0.57901880       0.13207000       0.62553500
   112  C          0.42098120       0.63207000       0.87446500
   113  H          0.48180700      -0.01242100       0.36608500
   114  H          0.51819300       0.48757900       0.13391500
   115  H          0.51819300       0.01242100       0.63391500
   116  H          0.48180700       0.51242100       0.86608500
   117  H          0.35744500       0.96756500       0.38609200
   118  H          0.64255500       0.46756500       0.11390800
   119  H          0.64255500       0.03243500       0.61390800
   120  H          0.35744500       0.53243500       0.88609200
   121  H          0.38592200       0.76710300       0.34394500
   122  H          0.61407800       0.26710300       0.15605500
   123  H          0.61407800       0.23289700       0.65605500
   124  H          0.38592200       0.73289700       0.84394500
   125  C          0.69478120       0.96247000       0.51358500
   126  C          0.30521880       0.46247000       0.98641500
   127  C          0.30521880       0.03753000       0.48641500
   128  C          0.69478120       0.53753000       0.01358500
   129  H          0.70896100       0.12767200       0.53216200
   130  H          0.29103900       0.62767200       0.96783800
   131  H          0.29103900       0.87232800       0.46783800
   132  H          0.70896100       0.37232800       0.03216200
   133  H          0.73670900       0.82208400       0.53477900
   134  H          0.26329100       0.32208400       0.96522100
   135  H          0.26329100       0.17791600       0.46522100
   136  H          0.73670900       0.67791600       0.03477900
   137  H          0.60816100       0.92574000       0.50579300
   138  H          0.39183900       0.42574000       0.99420700
   139  H          0.39183900       0.07426000       0.49420700
   140  H          0.60816100       0.57426000       0.00579300
   141  N          0.04515100       0.16982000       0.06483400
   142  N          0.95484900       0.66982000       0.43516600
   143  N          0.95484900       0.83018000       0.93516600
   144  N          0.04515100       0.33018000       0.56483400
   145  H          0.12401500       0.20230000       0.06236000
   146  H          0.87598500       0.70230000       0.43764000
   147  H          0.87598500       0.79770000       0.93764000
   148  H          0.12401500       0.29770000       0.56236000
   149  H          0.04991500       0.02640000       0.08327000
   150  H          0.95008500       0.52640000       0.41673000
   151  H          0.95008500      -0.02640000       0.91673000
   152  H          0.04991500       0.47360000       0.58327000
   153  C          0.97352110       0.10862000       0.01389500
   154  C          0.02647890       0.60862000       0.48610500
   155  C          0.02647890       0.89138000       0.98610500
   156  C          0.97352110       0.39138000       0.51389500
   157  H          0.96640400       0.26760200       0.99251000
   158  H          0.03359600       0.76760200       0.50749000
   159  H          0.03359600       0.73239800       0.00749000
   160  H          0.96640400       0.23239800       0.49251000
   161  H          0.89133200       0.05775200       0.01776400
   162  H          0.10866800       0.55775200       0.48223600
   163  H          0.10866800       0.94224800       0.98223600
   164  H          0.89133200       0.44224800       0.51776400
