data_UNEBOE
_symmetry_space_group_name_H-M    'P1'
_symmetry_Int_Tables_number       1
loop_
_symmetry_equiv_pos_site_id
_symmetry_equiv_pos_as_xyz
1 x,y,z
_cell_length_a                   7.0841
_cell_length_b                   7.2531
_cell_length_c                   13.9332
_cell_angle_alpha                90.681
_cell_angle_beta                 102.411
_cell_angle_gamma                106.301
loop_
_atom_site_label
_atom_site_type_symbol
_atom_site_fract_x
_atom_site_fract_y
_atom_site_fract_z
     1  C          0.67724000       0.35463000       0.80505850
     2  C          0.32276000       0.64537000       0.19494150
     3  C          0.48254000       0.34063000       0.75451820
     4  C          0.51746000       0.65937000       0.24548180
     5  C          0.33244000       0.29593000       0.80376840
     6  C          0.66756000       0.70407000       0.19623160
     7  C          0.22783000       0.21003000       0.96095840
     8  C          0.77217000       0.78997000       0.03904160
     9  C          0.27533000       0.17213000       0.05590160
    10  C          0.72467000       0.82787000       0.94409840
    11  C          0.71243000       0.17903000       0.24594160
    12  C          0.28757000       0.82097000       0.75405840
    13  C          0.87253000       0.24723000       0.20121150
    14  C          0.12747000       0.75277000       0.79878850
    15  C          0.83243000       0.28483000       0.10443140
    16  C          0.16757000       0.71517000       0.89556860
    17  C          0.63353000       0.25482000       0.05253130
    18  C          0.36647000       0.74518000       0.94746870
    19  C          0.58003000       0.28522000       0.94922870
    20  C          0.41997000       0.71478000       0.05077130
    21  C          0.37703000       0.26473000       0.90401860
    22  C          0.62297000       0.73527000       0.09598140
    23  C          0.47943000       0.19272000       0.10340130
    24  C          0.52057000       0.80728000       0.89659870
    25  N          0.72962000       0.33002000       0.89951890
    26  N          0.27038000       0.66998000       0.10048110
    27  N          0.52392000       0.15412000       0.19958110
    28  N          0.47608000       0.84588000       0.80041890
    29  H          0.78730000       0.38430000       0.76998500
    30  H          0.21270000       0.61570000       0.23001500
    31  H          0.46130000       0.36730000       0.68728400
    32  H          0.53870000       0.63270000       0.31271600
    33  H          0.19940000       0.28030000       0.77388500
    34  H          0.80060000       0.71970000       0.22611500
    35  H          0.08730000       0.20030000       0.92918500
    36  H          0.91270000       0.79970000       0.07081500
    37  H          0.17630000       0.13130000       0.09431400
    38  H          0.82370000       0.86870000       0.90568600
    39  H          0.73630000       0.15330000       0.31291500
    40  H          0.26370000       0.84670000       0.68708500
    41  H          0.01530000       0.26930000       0.24001500
    42  H         -0.01530000       0.73070000       0.75998500
    43  H          0.93630000       0.33230000       0.07291400
    44  H          0.06370000       0.66770000       0.92708600
    45  C          0.10402000       0.19102000       0.49349120
    46  C          0.89598000       0.80898000       0.50650880
    47  C          0.14333000       0.04452000       0.44252120
    48  C          0.85667000       0.95548000       0.55747880
    49  C          0.96247000       0.14453000       0.55113120
    50  C          0.03753000       0.85547000       0.44886880
    51  C          0.20733000       0.39692000       0.48210130
    52  C          0.79267000       0.60308000       0.51789870
    53  C          0.30543000       0.08692000       0.38489140
    54  C          0.69457000       0.91308000       0.61510860
    55  O          0.25272000       0.45299180       0.40708100
    56  O          0.74728000       0.54700820       0.59291900
    57  O          0.24122000       0.50914190       0.56287900
    58  O          0.75878000       0.49085810       0.43712100
    59  O          0.24432000       0.03212000       0.29327100
    60  O          0.75568000       0.96788000       0.70672900
    61  O          0.48152000       0.16195190       0.42724100
    62  O          0.51848000       0.83804810       0.57275900
    63  H          0.93470000       0.24930000       0.58411200
    64  H          0.06530000       0.75070000       0.41588800
    65  H          0.33530000       0.63130000       0.56121500
    66  H          0.66470000       0.36870000       0.43878500
    67  H          0.38350000       0.08840000       0.24820000
    68  H          0.61650000       0.91160000       0.75180000
