data_UNESAI
_symmetry_space_group_name_H-M    'P1'
_symmetry_Int_Tables_number       1
loop_
_symmetry_equiv_pos_site_id
_symmetry_equiv_pos_as_xyz
1 x,y,z
_cell_length_a                   8.31218
_cell_length_b                   9.38858
_cell_length_c                   13.290312
_cell_angle_alpha                106.7882
_cell_angle_beta                 95.2043
_cell_angle_gamma                110.8712
loop_
_atom_site_label
_atom_site_type_symbol
_atom_site_fract_x
_atom_site_fract_y
_atom_site_fract_z
     1  Br         0.17200900       0.19200600       0.90868500
     2  Br         0.82799100       0.80799400       0.09131500
     3  H          0.09840000       0.20570000       0.96500000
     4  H          0.90160000       0.79430000       0.03500000
     5  Cl         0.03132000       0.78222000       0.54314130
     6  Cl         0.96868000       0.21778000       0.45685870
     7  O          0.33436000       0.71375000       0.92822000
     8  O          0.66564000       0.28625000       0.07178000
     9  O          0.28016000       0.63935000       0.75023000
    10  O          0.71984000       0.36065000       0.24977000
    11  N          0.48325000       0.46014000       0.73993000
    12  N          0.51675000       0.53986000       0.26007000
    13  N          0.38635000       0.22574000       0.58443000
    14  N          0.61365000       0.77426000       0.41557000
    15  N          0.76185000       0.53934000       0.54923000
    16  N          0.23815000       0.46066000       0.45077000
    17  N          0.53315000       0.22594000       0.44393000
    18  N          0.46685000       0.77406000       0.55607000
    19  C          0.86976000       0.68976000       0.60394000
    20  C          0.13024000       0.31024000       0.39606000
    21  C          0.86207000       0.77936000       0.70614000
    22  C          0.13793000       0.22064000       0.29386000
    23  C          0.73527000       0.70805000       0.75414000
    24  C          0.26473000       0.29195000       0.24586000
    25  C          0.61666000       0.54665000       0.69843000
    26  C          0.38334000       0.45335000       0.30157000
    27  C          0.37767000       0.30755000       0.68094000
    28  C          0.62233000       0.69245000       0.31906000
    29  C          0.51446000       0.30105000       0.54023000
    30  C          0.48554000       0.69895000       0.45977000
    31  C          0.63666000       0.46755000       0.59713000
    32  C          0.36334000       0.53245000       0.40287000
    33  C          0.43626000       0.06345000       0.37113000
    34  C          0.56374000       0.93655000       0.62887000
    35  C          0.28247000       0.95785000       0.38474000
    36  C          0.71753000       0.04215000       0.61526000
    37  C          0.19447000       0.80364000       0.30734000
    38  C          0.80553000       0.19636000       0.69266000
    39  C          0.25667000       0.75314000       0.21723000
    40  C          0.74333000       0.24686000       0.78277000
    41  C          0.41127000       0.86074000       0.20514000
    42  C          0.58873000       0.13926000       0.79486000
    43  C          0.50117000       0.01446000       0.28113000
    44  C          0.49883000      -0.01446000       0.71887000
    45  C          0.15248000       0.58764000       0.13274000
    46  C          0.84752000       0.41236000       0.86726000
    47  C          0.45147000       0.53646000       0.84514000
    48  C          0.54853000       0.46354000       0.15486000
    49  C          0.34437000       0.63926000       0.83722000
    50  C          0.65563000       0.36074000       0.16278000
    51  H          0.94270000       0.88610000       0.74070000
    52  H          0.05730000       0.11390000       0.25930000
    53  H          0.72670000       0.76440000       0.82210000
    54  H          0.27330000       0.23560000       0.17790000
    55  H          0.28880000       0.25330000       0.71080000
    56  H          0.71120000       0.74670000       0.28920000
    57  H          0.23750000      -0.01070000       0.44500000
    58  H          0.76250000       0.01070000       0.55500000
    59  H          0.09060000       0.73270000       0.31690000
    60  H          0.90940000       0.26730000       0.68310000
    61  H          0.45580000       0.82940000       0.14470000
    62  H          0.54420000       0.17060000       0.85530000
    63  H          0.60560000       0.08480000       0.27170000
    64  H          0.39440000       0.91520000       0.72830000
    65  H          0.09350000       0.51250000       0.16680000
    66  H          0.90650000       0.48750000       0.83320000
    67  H          0.23090000       0.55070000       0.09460000
    68  H          0.76910000       0.44930000       0.90540000
    69  H          0.06660000       0.59460000       0.08300000
    70  H          0.93340000       0.40540000       0.91700000
    71  H          0.56400000       0.60610000       0.89470000
    72  H          0.43600000       0.39390000       0.10530000
    73  H          0.38640000       0.45200000       0.87200000
    74  H          0.61360000       0.54800000       0.12800000
    75  H          0.61730000       0.28440000       0.42140000
    76  H          0.38270000       0.71560000       0.57860000
    77  O          0.13539000       0.86397000       0.95345000
    78  O          0.86461000       0.13603000       0.04655000
    79  H          0.18380000       0.80850000       0.91030000
    80  H          0.81620000       0.19150000       0.08970000
    81  H          0.21780000       0.94350000       0.00330000
    82  H          0.78220000       0.05650000      -0.00330000
