data_UNIHUU
_symmetry_space_group_name_H-M    'P1'
_symmetry_Int_Tables_number       1
loop_
_symmetry_equiv_pos_site_id
_symmetry_equiv_pos_as_xyz
1 x,y,z
_cell_length_a                   8.00732
_cell_length_b                   9.65323
_cell_length_c                   14.68825
_cell_angle_alpha                81.2822
_cell_angle_beta                 82.2572
_cell_angle_gamma                71.0682
loop_
_atom_site_label
_atom_site_type_symbol
_atom_site_fract_x
_atom_site_fract_y
_atom_site_fract_z
     1  N          0.78183160       0.40989140       0.47456800
     2  N          0.21816840       0.59010860       0.52543200
     3  H          0.78420000       0.37041700       0.42469000
     4  H          0.21580000       0.62958300       0.57531000
     5  C          0.79127180       0.31990160       0.55318100
     6  C          0.20872820       0.68009840       0.44681900
     7  C          0.79392000       0.35586170       0.64067100
     8  C          0.20608000       0.64413830       0.35932900
     9  H          0.77410000       0.28610000       0.69050000
    10  H          0.22590000       0.71390000       0.30950000
    11  C          0.82138180       0.47899170       0.66606900
    12  C          0.17861820       0.52100830       0.33393100
    13  N          0.82373160       0.60171140       0.61210800
    14  N          0.17626840       0.39828860       0.38789200
    15  H          0.85820000       0.66191700       0.63671000
    16  H          0.14180000       0.33808300       0.36329000
    17  C          0.76839180       0.65347160       0.52159900
    18  C          0.23160820       0.34652840       0.47840100
    19  C          0.73497190       0.80348170       0.49604100
    20  C          0.26502810       0.19651830       0.50395900
    21  H          0.74990000       0.86300000       0.53830000
    22  H          0.25010000       0.13700000       0.46170000
    23  C          0.68002000       0.86802170       0.40948100
    24  C          0.31998000       0.13197830       0.59051900
    25  H          0.65740000       0.97100000       0.39290000
    26  H          0.34260000       0.02900000       0.60710000
    27  C          0.65821190       0.78263170       0.34767100
    28  C          0.34178810       0.21736830       0.65232900
    29  H          0.62220000       0.82600000       0.28810000
    30  H          0.37780000       0.17400000       0.71190000
    31  C          0.68957180       0.63199160       0.37335100
    32  C          0.31042820       0.36800840       0.62664900
    33  O          0.67156150       0.54176120       0.31576700
    34  O          0.32843850       0.45823880       0.68423300
    35  H          0.62020000       0.59471900       0.26521000
    36  H          0.37980000       0.40528100       0.73479000
    37  C          0.74633180       0.56569160       0.45984900
    38  C          0.25366820       0.43430840       0.54015100
    39  C          0.80292000       0.16490170       0.54287100
    40  C          0.19708000       0.83509830       0.45712900
    41  H          0.68310000       0.15730000       0.54570000
    42  H          0.31690000       0.84270000       0.45430000
    43  H          0.86590000       0.09760000       0.59300000
    44  H          0.13410000       0.90240000       0.40700000
    45  H          0.86720000       0.13840000       0.48320000
    46  H          0.13280000       0.86160000       0.51680000
    47  C          0.86432000       0.47167180       0.76331100
    48  C          0.13568000       0.52832820       0.23668900
    49  H          0.98900000       0.41420000       0.76890000
    50  H          0.01100000       0.58580000       0.23110000
    51  H          0.78860000       0.42440000       0.80600000
    52  H          0.21140000       0.57560000       0.19400000
    53  H          0.84350000       0.57170000       0.77850000
    54  H          0.15650000       0.42830000       0.22150000
    55  C          0.97407180       0.15745160       0.26301900
    56  C          0.02592820       0.84254840       0.73698100
    57  C          0.12597170       0.06049160       0.21411900
    58  C          0.87402830       0.93950840       0.78588100
    59  C          0.11487180       0.96746840       0.15389900
    60  C          0.88512820       0.03253160       0.84610100
    61  H          0.21940000       0.90400000       0.12540000
    62  H          0.78060000       0.09600000       0.87460000
    63  C          0.94968180       0.96804840       0.13567900
    64  C          0.05031820       0.03195160       0.86432100
    65  C          0.79522180       0.06504160       0.17363900
    66  C          0.20477820       0.93495840       0.82636100
    67  H          0.68250000       0.06970000       0.15740000
    68  H          0.31750000       0.93030000       0.84260000
    69  C          0.80916180       0.15306160       0.23454900
    70  C          0.19083820       0.84693840       0.76545100
    71  O          0.97874120       0.24000110       0.32017700
    72  O          0.02125880       0.75999890       0.67982300
    73  N          0.30364150       0.05961140       0.22486800
    74  N          0.69635850       0.94038860       0.77513200
    75  O          0.33203130       0.10837130       0.29188700
    76  O          0.66796870       0.89162870       0.70811300
    77  O          0.42266130       0.00819130       0.16497700
    78  O          0.57733870      -0.00819130       0.83502300
    79  N          0.93657160       0.86959860       0.07374800
    80  N          0.06342840       0.13040140       0.92625200
    81  O          0.07407140       0.78116880       0.04241700
    82  O          0.92592860       0.21883120       0.95758300
    83  O          0.78784140       0.87939860       0.05404800
    84  O          0.21215860       0.12060140       0.94595200
    85  N          0.64333150       0.25181130       0.27366800
    86  N          0.35666850       0.74818870       0.72633200
    87  O          0.61591130       0.24660120       0.35828700
    88  O          0.38408870       0.75339880       0.64171300
    89  O          0.53871130       0.33328120       0.21971700
    90  O          0.46128870       0.66671880       0.78028300
    91  O          0.51628130       0.66930120       0.15939700
    92  O          0.48371870       0.33069880       0.84060300
    93  C          0.60342000       0.63644180       0.08642100
    94  C          0.39658000       0.36355820       0.91357900
    95  C          0.78562000       0.52810190       0.08376120
    96  C          0.21438000       0.47189810       0.91623880
    97  H          0.81630000       0.48960000       0.14710000
    98  H          0.18370000       0.51040000       0.85290000
    99  H          0.87080000       0.57700000       0.05230000
   100  H          0.12920000       0.42300000       0.94770000
   101  H          0.78930000       0.44660000       0.05020000
   102  H          0.21070000       0.55340000       0.94980000
   103  C          0.53002000       0.70572000      -0.00361110
   104  C          0.46998000       0.29428000       0.00361110
   105  H          0.40020000       0.73600000       0.00500000
   106  H          0.59980000       0.26400000      -0.00500000
   107  H          0.57270000       0.63440000       0.95100000
   108  H          0.42730000       0.36560000       0.04900000
   109  H          0.56890000       0.79230000       0.97410000
   110  H          0.43110000       0.20770000       0.02590000
