data_UNIVIZ
_symmetry_space_group_name_H-M    'P1'
_symmetry_Int_Tables_number       1
loop_
_symmetry_equiv_pos_site_id
_symmetry_equiv_pos_as_xyz
1 x,y,z
_cell_length_a                   8.73251
_cell_length_b                   8.87109
_cell_length_c                   9.658514
_cell_angle_alpha                94.7151
_cell_angle_beta                 115.01813
_cell_angle_gamma                90.1569
loop_
_atom_site_label
_atom_site_type_symbol
_atom_site_fract_x
_atom_site_fract_y
_atom_site_fract_z
     1  Cl         0.19730120       0.73850110       0.17410110
     2  Cl         0.80269880       0.26149890       0.82589890
     3  Cl        -0.00266120       0.08775100       0.17623900
     4  Cl         0.00266120       0.91224900       0.82376100
     5  O          0.58643000       0.16273000       0.21713000
     6  O          0.41357000       0.83727000       0.78287000
     7  N          0.33113000       0.18883000       0.85593000
     8  N          0.66887000       0.81117000       0.14407000
     9  C          0.53994000       0.07434000       0.10084000
    10  C          0.46006000       0.92566000       0.89916000
    11  C          0.42664000       0.08144000       0.93714000
    12  C          0.57336000       0.91856000       0.06286000
    13  C          0.29554000       0.32134000       0.93214000
    14  C          0.70446000       0.67866000       0.06786000
    15  C          0.25344000       0.30794000       0.05454000
    16  C          0.74656000       0.69206000       0.94546000
    17  H          0.24560000       0.21300000       0.08600000
    18  H          0.75440000       0.78700000       0.91400000
    19  C          0.22315000       0.43614000       0.12894000
    20  C          0.77685000       0.56386000       0.87106000
    21  H          0.19780000       0.42850000       0.21250000
    22  H          0.80220000       0.57150000       0.78750000
    23  C          0.23084000       0.57614000       0.07804000
    24  C          0.76916000       0.42386000       0.92196000
    25  C          0.26824000       0.59014000       0.95454000
    26  C          0.73176000       0.40986000       0.04546000
    27  H          0.27280000       0.68500000       0.92170000
    28  H          0.72720000       0.31500000       0.07830000
    29  C          0.29894000       0.46184000       0.87934000
    30  C          0.70106000       0.53816000       0.12066000
    31  H          0.32160000       0.46980000       0.79430000
    32  H          0.67840000       0.53020000       0.20570000
    33  C          0.25294000       0.16944000       0.69044000
    34  C          0.74706000       0.83056000       0.30956000
    35  C          0.34545000       0.11904000       0.60974000
    36  C          0.65455000       0.88096000       0.39026000
    37  H          0.45980000       0.10120000       0.66210000
    38  H          0.54020000       0.89880000       0.33790000
    39  C          0.26685000       0.09564000       0.45174000
    40  C          0.73315000       0.90436000       0.54826000
    41  H          0.32690000       0.06010000       0.39680000
    42  H          0.67310000       0.93990000       0.60320000
    43  C          0.09794000       0.12554000       0.37644000
    44  C          0.90206000       0.87446000       0.62356000
    45  C          0.00614000       0.18164000       0.45394000
    46  C         -0.00614000       0.81836000       0.54606000
    47  H          0.89320000       0.20390000       0.40020000
    48  H          0.10680000       0.79610000       0.59980000
    49  C          0.08364000       0.20454000       0.61204000
    50  C          0.91636000       0.79546000       0.38796000
    51  H          0.02350000       0.24290000       0.66590000
    52  H         -0.02350000       0.75710000       0.33410000
    53  C          0.59640000       0.45140000       0.45630000
    54  C          0.40360000       0.54860000       0.54370000
    55  C          0.73630000       0.48330000       0.49420000
    56  C          0.26370000       0.51670000       0.50580000
