data_UNIWUM
_symmetry_space_group_name_H-M    'P1'
_symmetry_Int_Tables_number       1
loop_
_symmetry_equiv_pos_site_id
_symmetry_equiv_pos_as_xyz
1 x,y,z
_cell_length_a                   19.38719
_cell_length_b                   7.69804
_cell_length_c                   18.02907
_cell_angle_alpha                90.0
_cell_angle_beta                 91.6754
_cell_angle_gamma                90.0
loop_
_atom_site_label
_atom_site_type_symbol
_atom_site_fract_x
_atom_site_fract_y
_atom_site_fract_z
     1  Cl         0.30274200       0.80714600       0.09751200
     2  Cl         0.69725800       0.80714600       0.40248800
     3  Cl         0.80274200       0.30714600       0.09751200
     4  Cl         0.19725800       0.30714600       0.40248800
     5  Cl         0.69725800       0.19285400       0.90248800
     6  Cl         0.30274200       0.19285400       0.59751200
     7  Cl         0.19725800       0.69285400       0.90248800
     8  Cl         0.80274200       0.69285400       0.59751200
     9  Cl         0.62555200       0.72545700       0.57067200
    10  Cl         0.37444800       0.72545700       0.92932800
    11  Cl         0.12555200       0.22545700       0.57067200
    12  Cl         0.87444800       0.22545700       0.92932800
    13  Cl         0.37444800       0.27454300       0.42932800
    14  Cl         0.62555200       0.27454300       0.07067200
    15  Cl         0.87444800       0.77454300       0.42932800
    16  Cl         0.12555200       0.77454300       0.07067200
    17  N          0.34753800       0.76562000       0.42449800
    18  N          0.65246200       0.76562000       0.07550200
    19  N          0.84753800       0.26562000       0.42449800
    20  N          0.15246200       0.26562000       0.07550200
    21  N          0.65246200       0.23438000       0.57550200
    22  N          0.34753800       0.23438000       0.92449800
    23  N          0.15246200       0.73438000       0.57550200
    24  N          0.84753800       0.73438000       0.92449800
    25  O          0.18362700       0.86281180       0.40484700
    26  O          0.81637300       0.86281180       0.09515300
    27  O          0.68362700       0.36281180       0.40484700
    28  O          0.31637300       0.36281180       0.09515300
    29  O          0.81637300       0.13718820       0.59515300
    30  O          0.18362700       0.13718820       0.90484700
    31  O          0.31637300       0.63718820       0.59515300
    32  O          0.68362700       0.63718820       0.90484700
    33  C          0.49218100       0.82872000       0.56102900
    34  C          0.50781900       0.82872000       0.93897100
    35  C          0.99218100       0.32872000       0.56102900
    36  C          0.00781900       0.32872000       0.93897100
    37  C          0.50781900       0.17128000       0.43897100
    38  C          0.49218100       0.17128000       0.06102900
    39  C          0.00781900       0.67128000       0.43897100
    40  C          0.99218100       0.67128000       0.06102900
    41  H          0.50020000       0.87880000       0.60740000
    42  H          0.49980000       0.87880000       0.89260000
    43  H          0.00020000       0.37880000       0.60740000
    44  H         -0.00020000       0.37880000       0.89260000
    45  H          0.49980000       0.12120000       0.39260000
    46  H          0.50020000       0.12120000       0.10740000
    47  H         -0.00020000       0.62120000       0.39260000
    48  H          0.00020000       0.62120000       0.10740000
    49  C          0.21918100       0.80112000       0.45577100
    50  C          0.78081900       0.80112000       0.04422900
    51  C          0.71918100       0.30112000       0.45577100
    52  C          0.28081900       0.30112000       0.04422900
    53  C          0.78081900       0.19888000       0.54422900
    54  C          0.21918100       0.19888000       0.95577100
    55  C          0.28081900       0.69888000       0.54422900
    56  C          0.71918100       0.69888000       0.95577100
    57  C          0.41568900       0.76122000       0.45774900
    58  C          0.58431100       0.76122000       0.04225100
    59  C          0.91568900       0.26122000       0.45774900
    60  C          0.08431100       0.26122000       0.04225100
    61  C          0.58431100       0.23878000       0.54225100
    62  C          0.41568900       0.23878000       0.95774900
    63  C          0.08431100       0.73878000       0.54225100
    64  C          0.91568900       0.73878000       0.95774900
    65  C          0.27751100       0.67983000       0.23389100
    66  C          0.72248900       0.67983000       0.26610900
    67  C          0.77751100       0.17983000       0.23389100
    68  C          0.22248900       0.17983000       0.26610900
    69  C          0.72248900       0.32017000       0.76610900
    70  C          0.27751100       0.32017000       0.73389100
    71  C          0.22248900       0.82017000       0.76610900
    72  C          0.77751100       0.82017000       0.73389100
    73  H          0.24390000       0.61130000       0.21040000
    74  H          0.75610000       0.61130000       0.28960000
    75  H          0.74390000       0.11130000       0.21040000
    76  H          0.25610000       0.11130000       0.28960000
    77  H          0.75610000       0.38870000       0.78960000
    78  H          0.24390000       0.38870000       0.71040000
    79  H          0.25610000       0.88870000       0.78960000
    80  H          0.74390000       0.88870000       0.71040000
    81  C          0.53432100       0.66592000       0.45693100
    82  C          0.46567900       0.66592000       0.04306900
    83  C          0.03432100       0.16592000       0.45693100
    84  C          0.96567900       0.16592000       0.04306900
    85  C          0.46567900       0.33408000       0.54306900
    86  C          0.53432100       0.33408000       0.95693100
    87  C          0.96567900       0.83408000       0.54306900
    88  C          0.03432100       0.83408000       0.95693100
    89  H          0.57020000       0.60930000       0.43390000
    90  H          0.42980000       0.60930000       0.06610000
    91  H          0.07020000       0.10930000       0.43390000
    92  H          0.92980000       0.10930000       0.06610000
    93  H          0.42980000       0.39070000       0.56610000
    94  H          0.57020000       0.39070000       0.93390000
    95  H          0.92980000       0.89070000       0.56610000
    96  H          0.07020000       0.89070000       0.93390000
    97  C          0.37839900       0.88472000       0.30330100
    98  C          0.62160100       0.88472000       0.19669900
    99  C          0.87839900       0.38472000       0.30330100
   100  C          0.12160100       0.38472000       0.19669900
   101  C          0.62160100       0.11528000       0.69669900
   102  C          0.37839900       0.11528000       0.80330100
   103  C          0.12160100       0.61528000       0.69669900
   104  C          0.87839900       0.61528000       0.80330100
   105  H          0.41220000       0.95270000       0.32670000
   106  H          0.58780000       0.95270000       0.17330000
   107  H          0.91220000       0.45270000       0.32670000
   108  H          0.08780000       0.45270000       0.17330000
   109  H          0.58780000       0.04730000       0.67330000
   110  H          0.41220000       0.04730000       0.82670000
   111  H          0.08780000       0.54730000       0.67330000
   112  H          0.91220000       0.54730000       0.82670000
   113  C          0.36822900       0.89322000       0.22698100
   114  C          0.63177100       0.89322000       0.27301900
   115  C          0.86822900       0.39322000       0.22698100
   116  C          0.13177100       0.39322000       0.27301900
   117  C          0.63177100       0.10678000       0.77301900
   118  C          0.36822900       0.10678000       0.72698100
   119  C          0.13177100       0.60678000       0.77301900
   120  C          0.86822900       0.60678000       0.72698100
   121  H          0.39530000       0.96620000       0.19880000
   122  H          0.60470000       0.96620000       0.30120000
   123  H          0.89530000       0.46620000       0.19880000
   124  H          0.10470000       0.46620000       0.30120000
   125  H          0.60470000       0.03380000       0.80120000
   126  H          0.39530000       0.03380000       0.69880000
   127  H          0.10470000       0.53380000       0.80120000
   128  H          0.89530000       0.53380000       0.69880000
   129  C          0.31724100       0.79172000       0.19319900
   130  C          0.68275900       0.79172000       0.30680100
   131  C          0.81724100       0.29172000       0.19319900
   132  C          0.18275900       0.29172000       0.30680100
   133  C          0.68275900       0.20828000       0.80680100
   134  C          0.31724100       0.20828000       0.69319900
   135  C          0.18275900       0.70828000       0.80680100
   136  C          0.81724100       0.70828000       0.69319900
   137  C          0.46924100       0.67592000       0.42267100
   138  C          0.53075900       0.67592000       0.07732900
   139  C          0.96924100       0.17592000       0.42267100
   140  C          0.03075900       0.17592000       0.07732900
   141  C          0.53075900       0.32408000       0.57732900
   142  C          0.46924100       0.32408000       0.92267100
   143  C          0.03075900       0.82408000       0.57732900
   144  C          0.96924100       0.82408000       0.92267100
   145  H          0.46140000       0.62560000       0.37630000
   146  H          0.53860000       0.62560000       0.12370000
   147  H          0.96140000       0.12560000       0.37630000
   148  H          0.03860000       0.12560000       0.12370000
   149  H          0.53860000       0.37440000       0.62370000
   150  H          0.46140000       0.37440000       0.87630000
   151  H          0.03860000       0.87440000       0.62370000
   152  H          0.96140000       0.87440000       0.87630000
   153  C          0.42765900       0.84052000       0.52627900
   154  C          0.57234100       0.84052000       0.97372100
   155  C          0.92765900       0.34052000       0.52627900
   156  C          0.07234100       0.34052000       0.97372100
   157  C          0.57234100       0.15948000       0.47372100
   158  C          0.42765900       0.15948000       0.02627900
   159  C          0.07234100       0.65948000       0.47372100
   160  C          0.92765900       0.65948000       0.02627900
   161  H          0.39240000       0.90130000       0.54870000
   162  H          0.60760000       0.90130000       0.95130000
   163  H          0.89240000       0.40130000       0.54870000
   164  H          0.10760000       0.40130000       0.95130000
   165  H          0.60760000       0.09870000       0.45130000
   166  H          0.39240000       0.09870000       0.04870000
   167  H          0.10760000       0.59870000       0.45130000
   168  H          0.89240000       0.59870000       0.04870000
   169  C          0.28830100       0.67083000       0.31014100
   170  C          0.71169900       0.67083000       0.18985900
   171  C          0.78830100       0.17083000       0.31014100
   172  C          0.21169900       0.17083000       0.18985900
   173  C          0.71169900       0.32917000       0.68985900
   174  C          0.28830100       0.32917000       0.81014100
   175  C          0.21169900       0.82917000       0.68985900
   176  C          0.78830100       0.82917000       0.81014100
   177  H          0.26210000       0.59530000       0.33810000
   178  H          0.73790000       0.59530000       0.16190000
   179  H          0.76210000       0.09530000       0.33810000
   180  H          0.23790000       0.09530000       0.16190000
   181  H          0.73790000       0.40470000       0.66190000
   182  H          0.26210000       0.40470000       0.83810000
   183  H          0.23790000       0.90470000       0.66190000
   184  H          0.76210000       0.90470000       0.83810000
   185  C          0.54469100       0.74192000       0.52614100
   186  C          0.45530900       0.74192000       0.97385900
   187  C          0.04469100       0.24192000       0.52614100
   188  C          0.95530900       0.24192000       0.97385900
   189  C          0.45530900       0.25808000       0.47385900
   190  C          0.54469100       0.25808000       0.02614100
   191  C          0.95530900       0.75808000       0.47385900
   192  C          0.04469100       0.75808000       0.02614100
   193  C          0.33807100       0.77442000       0.34480900
   194  C          0.66192900       0.77442000       0.15519100
   195  C          0.83807100       0.27442000       0.34480900
   196  C          0.16192900       0.27442000       0.15519100
   197  C          0.66192900       0.22558000       0.65519100
   198  C          0.33807100       0.22558000       0.84480900
   199  C          0.16192900       0.72558000       0.65519100
   200  C          0.83807100       0.72558000       0.84480900
   201  C          0.29233100       0.75672000       0.46768100
   202  C          0.70766900       0.75672000       0.03231900
   203  C          0.79233100       0.25672000       0.46768100
   204  C          0.20766900       0.25672000       0.03231900
   205  C          0.70766900       0.24328000       0.53231900
   206  C          0.29233100       0.24328000       0.96768100
   207  C          0.20766900       0.74328000       0.53231900
   208  C          0.79233100       0.74328000       0.96768100
   209  O          0.50000000       0.15703000       0.25000000
   210  O          0.00000000       0.65703000       0.25000000
   211  O          0.50000000       0.84297000       0.75000000
   212  O          0.00000000       0.34297000       0.75000000
   213  C          0.50000000       0.31434000       0.25000000
   214  C          0.00000000       0.81434000       0.25000000
   215  C          0.50000000       0.68566000       0.75000000
   216  C          0.00000000       0.18566000       0.75000000
   217  C          0.43535110       0.41423000       0.23023110
   218  C          0.56464890       0.41423000       0.26976890
   219  C          0.93535110       0.91423000       0.23023110
   220  C          0.06464890       0.91423000       0.26976890
   221  C          0.56464890       0.58577000       0.76976890
   222  C          0.43535110       0.58577000       0.73023110
   223  C          0.06464890       0.08577000       0.76976890
   224  C          0.93535110       0.08577000       0.73023110
   225  H          0.41120000       0.35780000       0.18970000
   226  H          0.58880000       0.35780000       0.31030000
   227  H          0.91120000       0.85780000       0.18970000
   228  H          0.08880000       0.85780000       0.31030000
   229  H          0.58880000       0.64220000       0.81030000
   230  H          0.41120000       0.64220000       0.68970000
   231  H          0.08880000       0.14220000       0.81030000
   232  H          0.91120000       0.14220000       0.68970000
   233  H          0.44730000       0.53030000       0.21600000
   234  H          0.55270000       0.53030000       0.28400000
   235  H          0.94730000       0.03030000       0.21600000
   236  H          0.05270000       0.03030000       0.28400000
   237  H          0.55270000       0.46970000       0.78400000
   238  H          0.44730000       0.46970000       0.71600000
   239  H          0.05270000       0.96970000       0.78400000
   240  H          0.94730000       0.96970000       0.71600000
   241  H          0.40630000       0.41840000       0.27240000
   242  H          0.59370000       0.41840000       0.22760000
   243  H          0.90630000       0.91840000       0.27240000
   244  H          0.09370000       0.91840000       0.22760000
   245  H          0.59370000       0.58160000       0.72760000
   246  H          0.40630000       0.58160000       0.77240000
   247  H          0.09370000       0.08160000       0.72760000
   248  H          0.90630000       0.08160000       0.77240000
