data_UNUNOJ
_symmetry_space_group_name_H-M    'P1'
_symmetry_Int_Tables_number       1
loop_
_symmetry_equiv_pos_site_id
_symmetry_equiv_pos_as_xyz
1 x,y,z
_cell_length_a                   11.985311
_cell_length_b                   5.26943
_cell_length_c                   12.446911
_cell_angle_alpha                90.0
_cell_angle_beta                 109.9717
_cell_angle_gamma                90.0
loop_
_atom_site_label
_atom_site_type_symbol
_atom_site_fract_x
_atom_site_fract_y
_atom_site_fract_z
     1  O          0.63821130       0.13833000       0.35791120
     2  O          0.36178870       0.63833000       0.14208880
     3  O          0.36178870       0.86167000       0.64208880
     4  O          0.63821130       0.36167000       0.85791120
     5  O          0.75835130       0.04703000       0.53337130
     6  O          0.24164870       0.54703000       0.96662870
     7  O          0.24164870       0.95297000       0.46662870
     8  O          0.75835130       0.45297000       0.03337130
     9  C          0.72809170       0.17954000       0.43681160
    10  C          0.27190830       0.67954000       0.06318840
    11  C          0.27190830       0.82046000       0.56318840
    12  C          0.72809170       0.32046000       0.93681160
    13  C          0.81596170       0.38124000       0.43741170
    14  C          0.18403830       0.88124000       0.06258830
    15  C          0.18403830       0.61876000       0.56258830
    16  C          0.81596170       0.11876000       0.93741170
    17  C          0.78162000       0.52035000       0.32472000
    18  C          0.21838000       0.02035000       0.17528000
    19  C          0.21838000       0.47965000       0.67528000
    20  C          0.78162000      -0.02035000       0.82472000
    21  C          0.86658190       0.71414000       0.32012000
    22  C          0.13341810       0.21414000       0.17988000
    23  C          0.13341810       0.28586000       0.67988000
    24  C          0.86658190       0.78586000       0.82012000
    25  C          0.93552000       0.86595000       0.31562000
    26  C          0.06448000       0.36595000       0.18438000
    27  C          0.06448000       0.13405000       0.68438000
    28  C          0.93552000       0.63405000       0.81562000
    29  H          0.70420000       0.92960000       0.52530000
    30  H          0.29580000       0.42960000       0.97470000
    31  H          0.29580000       0.07040000       0.47470000
    32  H          0.70420000       0.57040000       0.02530000
    33  H         -0.00970000      -0.01290000       0.31410000
    34  H          0.00970000       0.48710000       0.18590000
    35  H          0.00970000       0.01290000       0.68590000
    36  H         -0.00970000       0.51290000       0.81410000
    37  H          0.89390000       0.30330000       0.45280000
    38  H          0.10610000       0.80330000       0.04720000
    39  H          0.10610000       0.69670000       0.54720000
    40  H          0.89390000       0.19670000       0.95280000
    41  H          0.82250000       0.49960000       0.49850000
    42  H          0.17750000      -0.00040000       0.00150000
    43  H          0.17750000       0.50040000       0.50150000
    44  H          0.82250000       0.00040000      -0.00150000
    45  H          0.77420000       0.39840000       0.26310000
    46  H          0.22580000       0.89840000       0.23690000
    47  H          0.22580000       0.60160000       0.73690000
    48  H          0.77420000       0.10160000       0.76310000
    49  H          0.70460000       0.60210000       0.30850000
    50  H          0.29540000       0.10210000       0.19150000
    51  H          0.29540000       0.39790000       0.69150000
    52  H          0.70460000       0.89790000       0.80850000
    53  C          0.59017170       0.51666000       0.59706170
    54  C          0.40982830       0.01666000       0.90293830
    55  C          0.40982830       0.48334000       0.40293830
    56  C          0.59017170      -0.01666000       0.09706170
    57  C          0.49619170       0.66436000       0.41805170
    58  C          0.50380830       0.16436000       0.08194830
    59  C          0.50380830       0.33564000       0.58194830
    60  C          0.49619170       0.83564000       0.91805170
    61  N          0.58771140       0.68397000       0.51635140
    62  N          0.41228860       0.18397000       0.98364860
    63  N          0.41228860       0.31603000       0.48364860
    64  N          0.58771140       0.81603000       0.01635140
    65  H          0.65280000       0.52850000       0.66580000
    66  H          0.34720000       0.02850000       0.83420000
    67  H          0.34720000       0.47150000       0.33420000
    68  H          0.65280000       0.97150000       0.16580000
    69  H          0.49180000       0.78470000       0.35880000
    70  H          0.50820000       0.28470000       0.14120000
    71  H          0.50820000       0.21530000       0.64120000
    72  H          0.49180000       0.71530000       0.85880000
