data_UPEDOK
_symmetry_space_group_name_H-M    'P1'
_symmetry_Int_Tables_number       1
loop_
_symmetry_equiv_pos_site_id
_symmetry_equiv_pos_as_xyz
1 x,y,z
_cell_length_a                   3.932311
_cell_length_b                   11.5574
_cell_length_c                   15.6324
_cell_angle_alpha                75.37019
_cell_angle_beta                 89.53713
_cell_angle_gamma                87.01614
loop_
_atom_site_label
_atom_site_type_symbol
_atom_site_fract_x
_atom_site_fract_y
_atom_site_fract_z
     1  Br         0.29283000       0.84397100       0.05489600
     2  Br         0.70717000       0.15602900       0.94510400
     3  N          0.66661700       0.66386000       0.47394000
     4  N          0.33338300       0.33614000       0.52606000
     5  N          0.59321700       0.73785000       0.60244000
     6  N          0.40678300       0.26215000       0.39756000
     7  N          0.42320000       0.55346000       0.59985000
     8  N          0.57680000       0.44654000       0.40015000
     9  H          0.40320000       0.49520000       0.57350000
    10  H          0.59680000       0.50480000       0.42650000
    11  H          0.35110000       0.54480000       0.65450000
    12  H          0.64890000       0.45520000       0.34550000
    13  N          0.84511600       0.85685000       0.47434000
    14  N          0.15488400       0.14315000       0.52566000
    15  N          0.78620000       0.92006000       0.60204000
    16  N          0.21380000       0.07994000       0.39796000
    17  H          0.72150000       0.90960000       0.65740000
    18  H          0.27850000       0.09040000       0.34260000
    19  H          0.88240000       0.98620000       0.57460000
    20  H          0.11760000       0.01380000       0.42540000
    21  C          0.55951800       0.65367000       0.55755000
    22  C          0.44048200       0.34633000       0.44245000
    23  C          0.79951900       0.76846000       0.43725000
    24  C          0.20048100       0.23154000       0.56275000
    25  C          0.90911900       0.78777000       0.34435000
    26  C          0.09088100       0.21223000       0.65565000
    27  C          0.88320000       0.90137000       0.28495000
    28  C          0.11680000       0.09863000       0.71505000
    29  H          0.78640000       0.96740000       0.30410000
    30  H          0.21360000       0.03260000       0.69590000
    31  C          0.73761800       0.83536000       0.55965000
    32  C          0.26238200       0.16464000       0.44035000
    33  C          0.13120000       0.82108000       0.17205000
    34  C          0.86880000       0.17892000       0.82795000
    35  C         -0.00280000       0.91838000       0.19895000
    36  C          0.00280000       0.08162000       0.80105000
    37  H         -0.01830000      -0.00440000       0.15910000
    38  H          0.01830000       0.00440000       0.84090000
    39  C          0.04520000       0.69147000       0.31295000
    40  C          0.95480000       0.30853000       0.68705000
    41  H          0.05760000       0.61330000       0.35160000
    42  H          0.94240000       0.38670000       0.64840000
    43  C          0.16020000       0.70739000       0.22716000
    44  C          0.83980000       0.29261000       0.77284000
    45  H          0.25540000       0.64190000       0.20680000
    46  H          0.74460000       0.35810000       0.79320000
    47  O          0.35420000       0.73216000       0.76334000
    48  O          0.64580000       0.26784000       0.23666000
    49  H          0.41090000       0.72730000       0.71230000
    50  H          0.58910000       0.27270000       0.28770000
    51  O          0.22420000       0.54606000       0.77675000
    52  O          0.77580000       0.45394000       0.22325000
    53  C          0.13620000       0.62458000       0.89995000
    54  C          0.86380000       0.37542000       0.10005000
    55  H          0.93620000       0.68100000       0.89770000
    56  H          0.06380000       0.31900000       0.10230000
    57  H          0.32200000       0.65210000       0.93090000
    58  H          0.67800000       0.34790000       0.06910000
    59  C          0.24520000       0.62858000       0.80845000
    60  C          0.75480000       0.37142000       0.19155000
    61  C          0.04420000       0.50228000       0.95245000
    62  C          0.95580000       0.49772000       0.04755000
    63  H          0.23810000       0.44440000       0.95140000
    64  H          0.76190000       0.55560000       0.04860000
    65  H          0.84720000       0.47680000       0.92380000
    66  H          0.15280000       0.52320000       0.07620000
