data_UPEDUQ
_symmetry_space_group_name_H-M    'P1'
_symmetry_Int_Tables_number       1
loop_
_symmetry_equiv_pos_site_id
_symmetry_equiv_pos_as_xyz
1 x,y,z
_cell_length_a                   6.52704
_cell_length_b                   8.72801
_cell_length_c                   14.24501
_cell_angle_alpha                105.372
_cell_angle_beta                 95.742
_cell_angle_gamma                94.482
loop_
_atom_site_label
_atom_site_type_symbol
_atom_site_fract_x
_atom_site_fract_y
_atom_site_fract_z
     1  Br         0.27453120       0.00553100       0.17421700
     2  Br         0.72546880      -0.00553100       0.82578300
     3  N          0.22088000       0.57167000       0.28714000
     4  N          0.77912000       0.42833000       0.71286000
     5  N          0.45969000       0.45257000       0.18134000
     6  N          0.54031000       0.54743000       0.81866000
     7  N          0.49799000       0.44517000       0.34754000
     8  N          0.50201000       0.55483000       0.65246000
     9  N          0.18319000       0.56087000       0.12304000
    10  N          0.81681000       0.43913000       0.87696000
    11  H          0.07490000       0.61070000       0.13110000
    12  H          0.92510000       0.38930000       0.86890000
    13  H          0.22390000       0.53290000       0.06590000
    14  H          0.77610000       0.46710000       0.93410000
    15  C          0.28839000       0.52657000       0.19935000
    16  C          0.71161000       0.47343000       0.80065000
    17  N          0.26901100       0.56889000       0.44815000
    18  N          0.73098900       0.43111000       0.55185000
    19  H          0.16360000       0.62150000       0.45810000
    20  H          0.83640000       0.37850000       0.54190000
    21  H          0.33570000       0.54240000       0.49560000
    22  H          0.66430000       0.45760000       0.50440000
    23  C          0.55261000       0.41198000       0.25835000
    24  C          0.44739000       0.58802000       0.74165000
    25  C          0.32871100       0.52839000       0.35945000
    26  C          0.67128900       0.47161000       0.64055000
    27  C          0.73171000       0.31548000       0.23775000
    28  C          0.26829000       0.68452000       0.76225000
    29  C          0.05581100       0.13578000       0.20176000
    30  C          0.94418900       0.86422000       0.79824000
    31  C          0.77531200       0.26009000       0.14395000
    32  C          0.22468800       0.73991000       0.85605000
    33  H          0.69420000       0.28300000       0.09290000
    34  H          0.30580000       0.71700000       0.90710000
    35  C          0.01761300       0.18881100       0.29506000
    36  C         -0.01761300       0.81118900       0.70494000
    37  H          0.09930000       0.16620000       0.34590000
    38  H          0.90070000       0.83380000       0.65410000
    39  C          0.84911200       0.28041000       0.31355000
    40  C          0.15088800       0.71959000       0.68645000
    41  H          0.81760000       0.31710000       0.37730000
    42  H          0.18240000       0.68290000       0.62270000
    43  C          0.94051200       0.16879000       0.12335000
    44  C          0.05948800       0.83121000       0.87665000
    45  H          0.97220000       0.13150000       0.05950000
    46  H          0.02780000       0.86850000       0.94050000
    47  O          0.73368000       0.59767000       0.07504000
    48  O          0.26632000       0.40233000       0.92496000
    49  H          0.73130000       0.55180000       0.01660000
    50  H          0.26870000       0.44820000       0.98340000
    51  C          0.68151500       0.75831100       0.08567000
    52  C          0.31848500       0.24168900       0.91433000
    53  H          0.78020000       0.83180000       0.13460000
    54  H          0.21980000       0.16820000       0.86540000
    55  H          0.54540000       0.76660000       0.10520000
    56  H          0.45460000       0.23340000       0.89480000
    57  H          0.68430000       0.78360000       0.02410000
    58  H          0.31570000       0.21640000       0.97590000
    59  O          0.92751000       0.76579000       0.46624000
    60  O          0.07249000       0.23421000       0.53376000
    61  O          0.89531000       0.74859000       0.30914000
    62  O          0.10469000       0.25141000       0.69086000
    63  C          0.59611200       0.95511000       0.50266000
    64  C          0.40388800       0.04489000       0.49734000
    65  H          0.70840000       0.02600000       0.54630000
    66  H          0.29160000       0.97400000       0.45370000
    67  H          0.56510000       0.86530000       0.52890000
    68  H          0.43490000       0.13470000       0.47110000
    69  C          0.66271200       0.89501000       0.40085000
    70  C          0.33728800       0.10499000       0.59915000
    71  H          0.54540000       0.83130000       0.35680000
    72  H          0.45460000       0.16870000       0.64320000
    73  H          0.69930000      -0.01360000       0.37680000
    74  H          0.30070000       0.01360000       0.62320000
    75  C          0.83941200       0.79819000       0.39645000
    76  C          0.16058800       0.20181000       0.60355000
    77  H         -0.01800000       0.69714000       0.29390000
    78  H          0.01800000       0.30286000       0.70610000
    79  H          0.02200000       0.30314000       0.70790000
    80  H         -0.02200000       0.69686000       0.29210000
