data_UPISOC
_symmetry_space_group_name_H-M    'P1'
_symmetry_Int_Tables_number       1
loop_
_symmetry_equiv_pos_site_id
_symmetry_equiv_pos_as_xyz
1 x,y,z
_cell_length_a                   11.69053
_cell_length_b                   12.74592
_cell_length_c                   13.04392
_cell_angle_alpha                112.77201
_cell_angle_beta                 99.53101
_cell_angle_gamma                113.41801
loop_
_atom_site_label
_atom_site_type_symbol
_atom_site_fract_x
_atom_site_fract_y
_atom_site_fract_z
     1  Cl         0.11602000       0.92831810       0.94029830
     2  O          0.05321200       0.83081000       0.82272000
     3  O          0.15111300       0.88208800       0.01549000
     4  O          0.24189000       0.02929000       0.95339000
     5  O          0.03978000      -0.01058000       0.98123000
     6  Cl         0.62667000       0.15057000       0.75437000
     7  Cl         0.48426000       0.28926000       0.74415000
     8  C          0.53280000       0.21658500       0.82938500
     9  H          0.58980000       0.28410000       0.91360000
    10  H          0.45360000       0.14640000       0.82580000
    11  Cl         0.79977000       0.97797000       0.66337000
    12  Cl         0.68077000       0.73827000       0.67326000
    13  C          0.78508200       0.90758800       0.75398900
    14  H          0.87460000       0.92910000       0.79920000
    15  H          0.74970000       0.94590000       0.81190000
    16  Cl         0.76764000       0.61143000       0.01205000
    17  Cl         0.60954000       0.72384000       0.95434000
    18  C          0.73480000       0.68080000       0.92818100
    19  H          0.70420000       0.61800000       0.84270000
    20  H          0.81860000       0.76020000       0.94940000
    21  O          0.88835000       0.37405000       0.01275000
    22  O          0.46245000       0.84085000       0.38286000
    23  O          0.50566000       0.42274000       0.18594000
    24  O          0.50955000       0.10695000       0.31746000
    25  O          0.34816000       0.78195000       0.88526000
    26  O          0.12807000       0.03225000       0.38285000
    27  N          0.72044000       0.25885000       0.35695000
    28  N          0.23906000       0.64764000       0.68385000
    29  N          0.10097000       0.19984000       0.39085000
    30  C          0.12327000       0.44953000       0.02334000
    31  C          0.19738000       0.38663000       0.00994000
    32  C          0.33518000       0.45503000       0.08603000
    33  C          0.39898000       0.59153000       0.16613000
    34  C          0.32478000       0.65643000       0.17764000
    35  C          0.18578000       0.58573000       0.10534000
    36  C          0.14179000       0.24693000       0.90902000
    37  H          0.04710000       0.20910000       0.86400000
    38  H          0.15150000       0.19380000       0.94270000
    39  H          0.19090000       0.24900000       0.85620000
    40  C          0.54998000       0.67142000       0.23581000
    41  H          0.58650000       0.61320000       0.21820000
    42  H          0.56850000       0.71570000       0.32120000
    43  H          0.59130000       0.73690000       0.21280000
    44  C          0.10929000       0.65892000       0.11302000
    45  H          0.16830000       0.75110000       0.17450000
    46  H          0.03300000       0.61990000       0.13340000
    47  H          0.07740000       0.65280000       0.03620000
    48  C          0.97402000       0.37752000       0.94503000
    49  H          0.96210000       0.42140000       0.90030000
    50  H          0.94620000       0.28690000       0.88670000
    51  C          0.84232000       0.27783000       0.04344000
    52  C          0.88503000       0.18713000       0.02634000
    53  H          0.94690000       0.18660000      -0.01130000
    54  C          0.83462000       0.09623000       0.06613000
    55  H          0.85840000       0.03080000       0.05020000
    56  C          0.75032000       0.10273000       0.12864000
    57  H          0.71940000       0.04370000       0.15730000
    58  C          0.71133000       0.19704000       0.14914000
    59  C          0.75613000       0.28153000       0.10424000
    60  H          0.72730000       0.34290000       0.11520000
    61  C          0.63962000       0.21963000       0.23483000
    62  H          0.62510000       0.29280000       0.24070000
    63  C          0.50452000       0.10322000       0.20293000
    64  H          0.43030000       0.11330000       0.17040000
    65  H          0.49350000       0.02010000       0.14400000
    66  C          0.64223000       0.19483000       0.39284000
    67  C          0.67482000       0.20243000       0.51313000
    68  H          0.62650000       0.11370000       0.50220000
    69  H          0.64460000       0.25660000       0.56420000
    70  C          0.13991100       0.03162000       0.27312000
    71  H          0.06110000       0.95520000       0.20230000
    72  H          0.22100000       0.03020000       0.26460000
    73  C          0.39539000       0.80413000       0.26053000
    74  H          0.46160000       0.84910000       0.23280000
    75  H          0.32930000       0.83320000       0.25810000
    76  C          0.39217000       0.84974000       0.45954000
    77  C          0.31428000       0.90863000       0.46413000
    78  H          0.30320000       0.94180000       0.41250000
    79  C          0.25289000       0.91742000       0.54743000
    80  H          0.19910000       0.95650000       0.55140000
    81  C          0.26917000       0.87043000       0.62413000
    82  H          0.22530000       0.87600000       0.67880000
    83  C          0.35088000       0.81413000       0.62094000
    84  C          0.41167000       0.80363000       0.53633000
    85  H          0.46570000       0.76500000       0.53220000
    86  C          0.37048000       0.76002000       0.70193000
    87  H          0.43350000       0.72770000       0.68720000
    88  C          0.42171000       0.85722000       0.83612000
    89  H          0.51860000       0.89420000       0.87430000
    90  H          0.40490000       0.92990000       0.84880000
    91  C          0.24297000       0.67203000       0.79014000
    92  C          0.14308000       0.58803000       0.82294000
    93  H          0.08940000       0.62820000       0.84930000
    94  H          0.19160000       0.58710000       0.89120000
    95  C          0.41438000       0.38552000       0.07452000
    96  H          0.35130000       0.29020000       0.03260000
    97  H          0.46520000       0.40380000       0.02500000
    98  C          0.45598000       0.39023000       0.26533000
    99  C          0.55539000       0.45441000       0.38041000
   100  H          0.64450000       0.51740000       0.40020000
   101  C          0.51701100       0.42179000       0.46231000
   102  H          0.58180000       0.46420000       0.53980000
   103  C          0.38409000       0.32671000       0.43552000
   104  H          0.36060000       0.30510000       0.49310000
   105  C          0.28938000       0.26682000       0.32153000
   106  C          0.32558000       0.29803000       0.23613000
   107  H          0.26080000       0.25620000       0.15880000
   108  C          0.14878000       0.15992000       0.28963000
   109  H          0.08630000       0.14270000       0.21600000
   110  C          0.09898000       0.12833000       0.43543000
   111  C          0.07498000       0.14202000       0.54703000
   112  H          0.16030000       0.17820000       0.61060000
   113  H          0.01320000       0.05430000       0.53280000
   114  C          0.82573000       0.26223000       0.57504000
   115  C          0.88082000       0.18283000       0.53664000
   116  C          0.01627000       0.23013000       0.59074000
   117  C          0.10147000       0.36173000       0.68374000
   118  C          0.04707000       0.44483000       0.72054000
   119  C          0.90793000       0.39373000       0.66594000
   120  C          0.79091000       0.04123000       0.42943000
   121  H          0.69970000       0.02340000       0.40080000
   122  H          0.79170000       0.97910000       0.45470000
   123  H          0.82520000       0.03210000       0.36550000
   124  C          0.25118000       0.41752000       0.74043000
   125  H          0.27230000       0.34870000       0.70520000
   126  H          0.27700000       0.45060000       0.82620000
   127  H          0.30000000       0.48910000       0.72660000
   128  C          0.84751000       0.48202000       0.70413000
   129  H          0.91780000       0.57010000       0.76770000
   130  H          0.77910000       0.44570000       0.73320000
   131  H          0.80740000       0.48680000       0.63600000
   132  N          0.02947000       0.40773000       0.45454000
   133  H          0.94110000       0.36520000       0.46730000
   134  H          0.08390000       0.46910000       0.51920000
   135  H          0.06490000       0.36410000       0.44120000
   136  C         -0.01907000       0.55124000       0.39384000
   137  C          0.95681000       0.59203000       0.31322000
   138  H          0.97060000       0.55750000       0.24160000
   139  C          0.91309000       0.68232000       0.33351000
   140  H          0.89720000       0.70800000       0.27670000
   141  C          0.89322000       0.73382000       0.43962000
   142  H          0.86330000       0.79470000       0.45500000
   143  C          0.91692000       0.69692000       0.52052000
   144  H          0.90320000       0.73260000       0.59220000
   145  C          0.96172000       0.60643000       0.50063000
   146  H         -0.02100000       0.58300000       0.55910000
   147  C          0.02267000       0.44914000       0.36294000
   148  H          0.95130000       0.37040000       0.28670000
   149  C          0.15309000       0.48982000       0.34262000
   150  H          0.14830000       0.51730000       0.28310000
   151  H          0.16790000       0.41580000       0.31450000
   152  H          0.22670000       0.56280000       0.41750000
