data_UPOBEH
_symmetry_space_group_name_H-M    'P1'
_symmetry_Int_Tables_number       1
loop_
_symmetry_equiv_pos_site_id
_symmetry_equiv_pos_as_xyz
1 x,y,z
_cell_length_a                   4.64182
_cell_length_b                   25.512811
_cell_length_c                   15.99439
_cell_angle_alpha                90.0
_cell_angle_beta                 99.7845
_cell_angle_gamma                90.0
loop_
_atom_site_label
_atom_site_type_symbol
_atom_site_fract_x
_atom_site_fract_y
_atom_site_fract_z
     1  N          0.91537000       0.06939500       0.05521800
     2  N          0.08463000       0.56939500       0.44478200
     3  N          0.08463000       0.93060500       0.94478200
     4  N          0.91537000       0.43060500       0.55521800
     5  H          0.79470000       0.04256000       0.05521000
     6  H          0.20530000       0.54256000       0.44479000
     7  H          0.20530000       0.95744000       0.94479000
     8  H          0.79470000       0.45744000       0.55521000
     9  H          0.81870000       0.10057000       0.05761000
    10  H          0.18130000       0.60057000       0.44239000
    11  H          0.18130000       0.89943000       0.94239000
    12  H          0.81870000       0.39943000       0.55761000
    13  H         -0.01730000       0.06836000       0.00851100
    14  H          0.01730000       0.56836000       0.49148900
    15  H          0.01730000       0.93164000      -0.00851100
    16  H         -0.01730000       0.43164000       0.50851100
    17  C          0.15763000       0.06408600       0.12874900
    18  C          0.84237000       0.56408600       0.37125100
    19  C          0.84237000       0.93591400       0.87125100
    20  C          0.15763000       0.43591400       0.62874900
    21  H          0.24930000       0.03046000       0.12349000
    22  H          0.75070000       0.53046000       0.37651000
    23  H          0.75070000       0.96954000       0.87651000
    24  H          0.24930000       0.46954000       0.62349000
    25  H          0.29130000       0.09266000       0.12509000
    26  H          0.70870000       0.59266000       0.37491000
    27  H          0.70870000       0.90734000       0.87491000
    28  H          0.29130000       0.40734000       0.62509000
    29  C          0.04423000       0.06742600       0.21175900
    30  C          0.95577000       0.56742600       0.28824100
    31  C          0.95577000       0.93257400       0.78824100
    32  C          0.04423000       0.43257400       0.71175900
    33  H          0.94570000       0.09966000       0.21439000
    34  H          0.05430000       0.59966000       0.28561000
    35  H          0.05430000       0.90034000       0.78561000
    36  H          0.94570000       0.40034000       0.71439000
    37  H          0.90670000       0.04046000       0.21419000
    38  H          0.09330000       0.54046000       0.28581000
    39  H          0.09330000       0.95954000       0.78581000
    40  H          0.90670000       0.45954000       0.71419000
    41  C          0.28843000       0.06249600       0.28782900
    42  C          0.71157000       0.56249600       0.21217100
    43  C          0.71157000       0.93750400       0.71217100
    44  C          0.28843000       0.43750400       0.78782900
    45  H          0.42930000       0.08886000       0.28509000
    46  H          0.57070000       0.58886000       0.21491000
    47  H          0.57070000       0.91114000       0.71491000
    48  H          0.42930000       0.41114000       0.78509000
    49  H          0.38830000       0.02966000       0.28439000
    50  H          0.61170000       0.52966000       0.21561000
    51  H          0.61170000       0.97034000       0.71561000
    52  H          0.38830000       0.47034000       0.78439000
    53  C          0.18283000       0.06780600       0.37245900
    54  C          0.81717000       0.56780600       0.12754100
    55  C          0.81717000       0.93219400       0.62754100
    56  C          0.18283000       0.43219400       0.87245900
    57  H          0.04730000       0.03906000       0.37909000
    58  H          0.95270000       0.53906000       0.12091000
    59  H          0.95270000       0.96094000       0.62091000
    60  H          0.04730000       0.46094000       0.87909000
    61  C          0.42943000       0.06875600       0.44813900
    62  C          0.57057000       0.56875600       0.05186100
    63  C          0.57057000       0.93124400       0.55186100
    64  C          0.42943000       0.43124400       0.94813900
    65  H          0.56330000       0.09396000       0.43989000
    66  H          0.43670000       0.59396000       0.06011000
    67  H          0.43670000       0.90604000       0.56011000
    68  H          0.56330000       0.40604000       0.93989000
    69  H          0.53730000       0.03626000       0.45069000
    70  H          0.46270000       0.53626000       0.04931000
    71  H          0.46270000       0.96374000       0.54931000
    72  H          0.53730000       0.46374000       0.95069000
    73  C          0.32973000       0.07798600       0.53266900
    74  C          0.67027000       0.57798600       0.96733100
    75  C          0.67027000       0.92201400       0.46733100
    76  C          0.32973000       0.42201400       0.03266900
    77  H          0.20830000       0.10886000       0.52819000
    78  H          0.79170000       0.60886000       0.97181000
    79  H          0.79170000       0.89114000       0.47181000
    80  H          0.20830000       0.39114000       0.02819000
    81  H          0.20430000       0.04916000       0.54549000
    82  H          0.79570000       0.54916000       0.95451000
    83  H          0.79570000       0.95084000       0.45451000
    84  H          0.20430000       0.45084000       0.04549000
    85  C          0.57993000       0.08546600       0.60634900
    86  C          0.42007000       0.58546600       0.89365100
    87  C          0.42007000       0.91453400       0.39365100
    88  C          0.57993000       0.41453400       0.10634900
    89  H          0.70230000       0.05376000       0.61579000
    90  H          0.29770000       0.55376000       0.88421000
    91  H          0.29770000       0.94624000       0.38421000
    92  H          0.70230000       0.44624000       0.11579000
    93  H          0.70430000       0.11296000       0.59129000
    94  H          0.29570000       0.61296000       0.90871000
    95  H          0.29570000       0.88704000       0.40871000
    96  H          0.70430000       0.38704000       0.09129000
    97  C          0.47953000       0.10113600       0.68852900
    98  C          0.52047000       0.60113600       0.81147100
    99  C          0.52047000       0.89886400       0.31147100
   100  C          0.47953000       0.39886400       0.18852900
   101  H          0.36130000       0.13046000       0.67739000
   102  H          0.63870000       0.63046000       0.82261000
   103  H          0.63870000       0.86954000       0.32261000
   104  H          0.36130000       0.36954000       0.17739000
   105  H          0.36230000       0.07386000       0.70881000
   106  H          0.63770000       0.57386000       0.79119000
   107  H          0.63770000       0.92614000       0.29119000
   108  H          0.36230000       0.42614000       0.20881000
   109  C          0.73303000       0.11508600       0.75736900
   110  C          0.26697000       0.61508600       0.74263100
   111  C          0.26697000       0.88491400       0.24263100
   112  C          0.73303000       0.38491400       0.25736900
   113  H          0.85630000       0.08546000       0.77439000
   114  H          0.14370000       0.58546000       0.72561000
   115  H          0.14370000       0.91454000       0.22561000
   116  H          0.85630000       0.41454000       0.27439000
   117  H          0.84830000       0.14136000       0.73889000
   118  H          0.15170000       0.64136000       0.76111000
   119  H          0.15170000       0.85864000       0.26111000
   120  H          0.84830000       0.35864000       0.23889000
   121  N          0.62813000       0.13614500       0.83327800
   122  N          0.37187000       0.63614500       0.66672200
   123  N          0.37187000       0.86385500       0.16672200
   124  N          0.62813000       0.36385500       0.33327800
   125  H          0.51640000       0.11127000       0.85621000
   126  H          0.48360000       0.61127000       0.64379000
   127  H          0.48360000       0.88873000       0.14379000
   128  H          0.51640000       0.38873000       0.35621000
   129  H          0.51530000       0.16276000       0.82011000
   130  H          0.48470000       0.66276000       0.67989000
   131  H          0.48470000       0.83724000       0.17989000
   132  H          0.51530000       0.33724000       0.32011000
   133  H          0.77340000       0.14417000       0.87591200
   134  H          0.22660000       0.64417000       0.62408800
   135  H          0.22660000       0.85583000       0.12408800
   136  H          0.77340000       0.35583000       0.37591200
   137  H          0.07330000       0.09866000       0.37311000
   138  H          0.92670000       0.59866000       0.12689000
   139  H          0.92670000       0.90134000       0.62689000
   140  H          0.07330000       0.40134000       0.87311000
   141  Cl         0.29287700       0.04833813       0.91188200
   142  Cl         0.70712300       0.54833813       0.58811800
   143  Cl         0.70712300       0.95166187       0.08811800
   144  Cl         0.29287700       0.45166187       0.41188200
   145  C          0.79517000       0.20089500       0.02972900
   146  C          0.20483000       0.70089500       0.47027100
   147  C          0.20483000       0.79910500       0.97027100
   148  C          0.79517000       0.29910500       0.52972900
   149  O          0.69028000       0.17057400       0.07949600
   150  O          0.30972000       0.67057400       0.42050400
   151  O          0.30972000       0.82942600       0.92050400
   152  O          0.69028000       0.32942600       0.57949600
   153  O          0.94918000       0.18676400       0.97708400
   154  O          0.05082000       0.68676400       0.52291600
   155  O          0.05082000       0.81323600       0.02291600
   156  O          0.94918000       0.31323600       0.47708400
   157  C          0.71416000       0.25788600       0.03817110
   158  C          0.28584000       0.75788600       0.46182890
   159  C          0.28584000       0.74211400       0.96182890
   160  C          0.71416000       0.24211400       0.53817110
   161  H          0.50760000       0.26146000       0.02851100
   162  H          0.49240000       0.76146000       0.47148900
   163  H          0.49240000       0.73854000       0.97148900
   164  H          0.50760000       0.23854000       0.52851100
   165  H          0.78360000       0.27037000       0.09251200
   166  H          0.21640000       0.77037000       0.40748800
   167  H          0.21640000       0.72963000       0.90748800
   168  H          0.78360000       0.22963000       0.59251200
   169  Cl         0.86315100       0.30039314       0.96789700
   170  Cl         0.13684900       0.80039314       0.53210300
   171  Cl         0.13684900       0.69960686       0.03210300
   172  Cl         0.86315100       0.19960686       0.46789700
   173  C          0.38813000       0.26787600       0.73719900
   174  C          0.61187000       0.76787600       0.76280100
   175  C          0.61187000       0.73212400       0.26280100
   176  C          0.38813000       0.23212400       0.23719900
   177  O          0.51912000       0.22949400       0.72089700
   178  O          0.48088000       0.72949400       0.77910300
   179  O          0.48088000       0.77050600       0.27910300
   180  O          0.51912000       0.27050600       0.22089700
   181  O          0.38582000       0.31318400       0.69786700
   182  O          0.61418000       0.81318400       0.80213300
   183  O          0.61418000       0.68681600       0.30213300
   184  O          0.38582000       0.18681600       0.19786700
   185  C          0.20824000       0.26991600       0.80690100
   186  C          0.79176000       0.76991600       0.69309900
   187  C          0.79176000       0.73008400       0.19309900
   188  C          0.20824000       0.23008400       0.30690100
   189  H          0.29740000       0.29757000       0.84551100
   190  H          0.70260000       0.79757000       0.65448900
   191  H          0.70260000       0.70243000       0.15448900
   192  H          0.29740000       0.20243000       0.34551100
   193  H          0.00740000       0.28076000       0.78071000
   194  H         -0.00740000       0.78076000       0.71929000
   195  H         -0.00740000       0.71924000       0.21929000
   196  H          0.00740000       0.21924000       0.28071000
   197  O          0.22393000       0.22050400       0.84739800
   198  O          0.77607000       0.72050400       0.65260200
   199  O          0.77607000       0.77949600       0.15260200
   200  O          0.22393000       0.27949600       0.34739800
   201  H          0.48340000       0.31187000       0.66091100
   202  H          0.51660000       0.81187000       0.83908900
   203  H          0.51660000       0.68813000       0.33908900
   204  H          0.48340000       0.18813000       0.16091100
   205  H          0.14240000       0.22117000       0.88471200
   206  H          0.85760000       0.72117000       0.61528800
   207  H          0.85760000       0.77883000       0.11528800
   208  H          0.14240000       0.27883000       0.38471200
