data_UPOJER
_symmetry_space_group_name_H-M    'P1'
_symmetry_Int_Tables_number       1
loop_
_symmetry_equiv_pos_site_id
_symmetry_equiv_pos_as_xyz
1 x,y,z
_cell_length_a                   8.134512
_cell_length_b                   8.686616
_cell_length_c                   13.06501
_cell_angle_alpha                95.7759
_cell_angle_beta                 98.8281
_cell_angle_gamma                96.0931
loop_
_atom_site_label
_atom_site_type_symbol
_atom_site_fract_x
_atom_site_fract_y
_atom_site_fract_z
     1  I          0.74772000       0.74743000       0.49649160
     2  I          0.25228000       0.25257000       0.50350840
     3  I          0.43402000       0.77342000       0.88268160
     4  I          0.56598000       0.22658000       0.11731840
     5  I          0.63962000       0.71373000       0.07341160
     6  I          0.36038000       0.28627000       0.92658840
     7  I          0.24122000       0.83513000       0.68878160
     8  I          0.75878000       0.16487000       0.31121840
     9  N          0.37020000       0.74230000       0.33561700
    10  N          0.62980000       0.25770000       0.66438300
    11  H          0.48798900       0.75954000       0.36973900
    12  H          0.51201100       0.24046000       0.63026100
    13  N          0.08820000       0.72730000       0.36501600
    14  N          0.91180000       0.27270000       0.63498400
    15  H          0.01672700       0.73990200       0.41875600
    16  H         -0.01672700       0.26009800       0.58124400
    17  C          0.34430000       0.85540000       0.26220000
    18  C          0.65570000       0.14460000       0.73780000
    19  H          0.41888400       0.84418000       0.21144100
    20  H          0.58111600       0.15582000       0.78855900
    21  H          0.37046600       0.95967500       0.29916600
    22  H          0.62953400       0.04032500       0.70083400
    23  C          0.12930000       0.67230000       0.15120000
    24  C          0.87070000       0.32770000       0.84880000
    25  H          0.20218900       0.65886000       0.09954200
    26  H          0.79781100       0.34114000       0.90045800
    27  H          0.01432600       0.65582300       0.11533400
    28  H         -0.01432600       0.34417700       0.88466600
    29  C          0.15530000       0.55130000       0.22821900
    30  C          0.84470000       0.44870000       0.77178100
    31  C          0.33530000       0.57430000       0.27720000
    32  C          0.66470000       0.42570000       0.72280000
    33  H          0.40564500       0.56217200       0.22392400
    34  H          0.59435500       0.43782800       0.77607600
    35  H          0.35700800       0.49777200       0.32520100
    36  H          0.64299200       0.50222800       0.67479900
    37  C          0.26440000       0.75140000       0.41620000
    38  C          0.73560000       0.24860000       0.58380000
    39  H          0.28944600       0.85285800       0.45746500
    40  H          0.71055400       0.14714200       0.54253500
    41  H          0.28553800       0.67232600       0.46238900
    42  H          0.71446200       0.32767400       0.53761100
    43  C          0.05730000       0.85630000       0.28920000
    44  C          0.94270000       0.14370000       0.71080000
    45  H          0.94057500       0.84390900       0.25589100
    46  H          0.05942500       0.15609100       0.74410900
    47  H          0.08567800       0.95913500       0.32686200
    48  H          0.91432200       0.04086500       0.67313800
    49  C          0.16830000       0.83230000       0.20820000
    50  C          0.83170000       0.16770000       0.79180000
    51  C          0.03930000       0.57230000       0.30720000
    52  C          0.96070000       0.42770000       0.69280000
    53  H          0.92364000       0.56283000       0.27132500
    54  H          0.07636000       0.43717000       0.72867500
    55  H          0.04765000       0.49273700       0.35378300
    56  H          0.95235000       0.50726300       0.64621700
    57  C          0.10740000       0.38430000       0.17020000
    58  C          0.89260000       0.61570000       0.82980000
    59  H          0.18446500       0.36408100       0.12297300
    60  H          0.81553500       0.63591900       0.87702700
    61  H         -0.00433600       0.37460200       0.13125700
    62  H          0.00433600       0.62539800       0.86874300
    63  H          0.11199500       0.30966900       0.21969700
    64  H          0.88800500       0.69033100       0.78030300
    65  C          0.14050000       0.95750000       0.13330000
    66  C          0.85950000       0.04250000       0.86670000
    67  H          0.13420300       0.91115300       0.06221500
    68  H          0.86579700       0.08884700       0.93778500
    69  H          0.23121200       0.04020800       0.14945700
    70  H          0.76878800       0.95979200       0.85054300
    71  H          0.03675200      -0.00138300       0.13998000
    72  H          0.96324800       0.00138300       0.86002000
