data_UPOQEW
_symmetry_space_group_name_H-M    'P1'
_symmetry_Int_Tables_number       1
loop_
_symmetry_equiv_pos_site_id
_symmetry_equiv_pos_as_xyz
1 x,y,z
_cell_length_a                   8.41513
_cell_length_b                   10.00354
_cell_length_c                   10.61653
_cell_angle_alpha                75.0772
_cell_angle_beta                 86.2193
_cell_angle_gamma                76.0542
loop_
_atom_site_label
_atom_site_type_symbol
_atom_site_fract_x
_atom_site_fract_y
_atom_site_fract_z
     1  C          0.72831170       0.30223850       0.89296140
     2  C          0.27168830       0.69776150       0.10703860
     3  O          0.67021120       0.36830890      -0.00476100
     4  O          0.32978880       0.63169110       0.00476100
     5  H          0.71180000       0.43590000      -0.01090000
     6  H          0.28820000       0.56410000       0.01090000
     7  C          0.90758170       0.21979840       0.91986150
     8  C          0.09241830       0.78020160       0.08013850
     9  H          0.91380000       0.15300000       0.00470000
    10  H          0.08620000       0.84700000      -0.00470000
    11  H          0.94260000       0.16540000       0.85530000
    12  H          0.05740000       0.83460000       0.14470000
    13  C          0.62228180       0.19448850       0.89904140
    14  C          0.37771820       0.80551150       0.10095860
    15  H          0.51220000       0.24570000       0.87050000
    16  H          0.48780000       0.75430000       0.12950000
    17  H          0.66710000       0.13540000       0.83970000
    18  H          0.33290000       0.86460000       0.16030000
    19  N          0.61505140       0.10415880       0.02959120
    20  N          0.38494860       0.89584120       0.97040880
    21  N          0.73445150       0.98427870       0.07528130
    22  N          0.26554850       0.01572130       0.92471870
    23  C          0.69008180       0.94258830       0.19715160
    24  C          0.30991820       0.05741170       0.80284840
    25  H          0.74920000       0.86180000       0.25470000
    26  H          0.25080000       0.13820000       0.74530000
    27  N          0.55085150       0.02659860       0.23308130
    28  N          0.44914850       0.97340140       0.76691870
    29  C          0.50897170       0.12673840       0.12453150
    30  C          0.49102830       0.87326160       0.87546850
    31  H          0.41780000       0.20260000       0.11580000
    32  H          0.58220000       0.79740000       0.88420000
    33  N          0.01928140       0.31101880       0.91695110
    34  N          0.98071860       0.68898120       0.08304890
    35  N          0.06594160       0.39201860       0.80266120
    36  N          0.93405840       0.60798140       0.19733880
    37  C          0.17115180       0.44932830       0.84391150
    38  C          0.82884820       0.55067170       0.15608850
    39  H          0.22480000       0.51190000       0.78710000
    40  H          0.77520000       0.48810000       0.21290000
    41  N          0.19673140       0.41161870       0.97452120
    42  N          0.80326860       0.58838130       0.02547880
    43  C          0.09830170       0.32389840       0.01632140
    44  C          0.90169830       0.67610160       0.98367860
    45  H          0.08600000       0.27760000       0.10310000
    46  H          0.91400000       0.72240000       0.89690000
    47  C          0.69889170       0.40996850       0.76040140
    48  C          0.30110830       0.59003150       0.23959860
    49  C          0.76722000       0.38159830       0.64504150
    50  C          0.23278000       0.61840170       0.35495850
    51  F          0.86652140       0.25218890       0.64699100
    52  F          0.13347860       0.74781110       0.35300900
    53  C          0.74022000       0.47748000       0.52517160
    54  C          0.25978000       0.52252000       0.47482840
    55  H          0.79070000       0.45550000       0.45010000
    56  H          0.20930000       0.54450000       0.54990000
    57  C          0.63592000       0.60674810       0.52141160
    58  C          0.36408000       0.39325190       0.47858840
    59  F          0.60401150       0.70135880       0.40332100
    60  F          0.39598850       0.29864120       0.59667900
    61  C          0.56102000       0.64335820       0.63041160
    62  C          0.43898000       0.35664180       0.36958840
    63  H          0.49050000       0.73190000       0.62490000
    64  H          0.50950000       0.26810000       0.37510000
    65  C          0.59401180       0.54369840       0.74904150
    66  C          0.40598820       0.45630160       0.25095850
    67  H          0.54430000       0.56690000       0.82390000
    68  H          0.45570000       0.43310000       0.17610000
    69  O          0.84724140       0.92018860       0.71131110
    70  O          0.15275860       0.07981140       0.28868890
    71  O          0.65254140       0.01779860       0.55985120
    72  O          0.34745860       0.98220140       0.44014880
    73  C          0.80540190       0.97708830       0.59972150
    74  C          0.19459810       0.02291170       0.40027850
    75  C          0.92124190       0.01069820       0.49091150
    76  C          0.07875810       0.98930180       0.50908850
    77  H          0.88040000       0.04840000       0.40670000
    78  H          0.11960000       0.95160000       0.59330000
    79  H          0.58530000      -0.00330000       0.63320000
    80  H          0.41470000       0.00330000       0.36680000
