data_UPUVOR
_symmetry_space_group_name_H-M    'P1'
_symmetry_Int_Tables_number       1
loop_
_symmetry_equiv_pos_site_id
_symmetry_equiv_pos_as_xyz
1 x,y,z
_cell_length_a                   8.496313
_cell_length_b                   9.101814
_cell_length_c                   22.0624
_cell_angle_alpha                90.0
_cell_angle_beta                 90.0
_cell_angle_gamma                90.0
loop_
_atom_site_label
_atom_site_type_symbol
_atom_site_fract_x
_atom_site_fract_y
_atom_site_fract_z
     1  C          0.06614000       0.49824000       0.78415170
     2  C          0.43386000       0.50176000       0.28415170
     3  C          0.93386000      -0.00176000       0.71584830
     4  C          0.56614000       0.00176000       0.21584830
     5  H          0.10760000       0.60010000       0.77860000
     6  H          0.39240000       0.39990000       0.27860000
     7  H          0.89240000       0.10010000       0.72140000
     8  H          0.60760000       0.89990000       0.22140000
     9  C          0.19524000       0.38545000       0.76959170
    10  C          0.30476000       0.61455000       0.26959170
    11  C          0.80476000       0.88545000       0.73040830
    12  C          0.69524000       0.11455000       0.23040830
    13  C          0.00754000       0.47824000       0.84876180
    14  C          0.49246000       0.52176000       0.34876180
    15  C         -0.00754000       0.97824000       0.65123820
    16  C          0.50754000       0.02176000       0.15123820
    17  H          0.97590000       0.37340000       0.85480000
    18  H          0.52410000       0.62660000       0.35480000
    19  H          0.02410000       0.87340000       0.64520000
    20  H          0.47590000       0.12660000       0.14520000
    21  C          0.13374000       0.51714000       0.89387180
    22  C          0.36626000       0.48286000       0.39387180
    23  C          0.86626000       0.01714000       0.60612820
    24  C          0.63374000       0.98286000       0.10612820
    25  H          0.16410000       0.62010000       0.88850000
    26  H          0.33590000       0.37990000       0.38850000
    27  H          0.83590000       0.12010000       0.61150000
    28  H          0.66410000       0.87990000       0.11150000
    29  H          0.22570000       0.45400000       0.88740000
    30  H          0.27430000       0.54600000       0.38740000
    31  H          0.77430000       0.95400000       0.61260000
    32  H          0.72570000       0.04600000       0.11260000
    33  H          0.09360000       0.50240000       0.93510000
    34  H          0.40640000       0.49760000       0.43510000
    35  H          0.90640000       0.00240000       0.56490000
    36  H          0.59360000      -0.00240000       0.06490000
    37  C          0.45964000       0.34964000       0.72934180
    38  C          0.04036000       0.65036000       0.22934180
    39  C          0.54036000       0.84964000       0.77065820
    40  C          0.95964000       0.15036000       0.27065820
    41  H          0.42350000       0.24500000       0.73020000
    42  H          0.07650000       0.75500000       0.23020000
    43  H          0.57650000       0.74500000       0.76980000
    44  H          0.92350000       0.25500000       0.26980000
    45  C          0.60094000       0.36335000       0.77215180
    46  C          0.89906000       0.63665000       0.27215180
    47  C          0.39906000       0.86335000       0.72784820
    48  C          0.10094000       0.13665000       0.22784820
    49  C          0.51264000       0.38414000       0.66585190
    50  C         -0.01264000       0.61586000       0.16585190
    51  C          0.48736000       0.88414000       0.83414810
    52  C          0.01264000       0.11586000       0.33414810
    53  C          0.51365000       0.27774000       0.62142000
    54  C         -0.01365000       0.72226000       0.12142000
    55  C          0.48635000       0.77774000       0.87858000
    56  C          0.01365000       0.22226000       0.37858000
    57  H          0.47630000       0.18190000       0.63060000
    58  H          0.02370000       0.81810000       0.13060000
    59  H          0.52370000       0.68190000       0.86940000
    60  H          0.97630000       0.31810000       0.36940000
    61  C          0.56786000       0.30795000       0.56362000
    62  C          0.93214000       0.69205000       0.06362000
    63  C          0.43214000       0.80795000       0.93638000
    64  C          0.06786000       0.19205000       0.43638000
    65  H          0.56660000       0.23330000       0.53350000
    66  H          0.93340000       0.76670000       0.03350000
    67  H          0.43340000       0.73330000       0.96650000
    68  H          0.06660000       0.26670000       0.46650000
    69  C          0.62315000       0.44526000       0.54972000
    70  C          0.87685000       0.55474000       0.04972000
    71  C          0.37685000       0.94526000       0.95028000
    72  C          0.12315000       0.05474000       0.45028000
    73  H          0.66100000       0.46590000       0.51010000
    74  H          0.83900000       0.53410000       0.01010000
    75  H          0.33900000       0.96590000       0.98990000
    76  H          0.16100000       0.03410000       0.48990000
    77  C          0.62335000       0.55235000       0.59322000
    78  C          0.87665000       0.44765000       0.09322000
    79  C          0.37665000       0.05235000       0.90678000
    80  C          0.12335000       0.94765000       0.40678000
    81  H          0.66050000       0.64800000       0.58370000
    82  H          0.83950000       0.35200000       0.08370000
    83  H          0.33950000       0.14800000       0.91630000
    84  H          0.16050000       0.85200000       0.41630000
    85  C          0.56975000       0.52155000       0.65052000
    86  C          0.93025000       0.47845000       0.15052000
    87  C          0.43025000       0.02155000       0.84948000
    88  C          0.06975000       0.97845000       0.34948000
    89  H          0.57180000       0.59660000       0.68040000
    90  H          0.92820000       0.40340000       0.18040000
    91  H          0.42820000       0.09660000       0.81960000
    92  H          0.07180000       0.90340000       0.31960000
    93  N          0.93547000       0.47003000       0.74035130
    94  N          0.56453000       0.52997000       0.24035130
    95  N          0.06453000       0.97003000       0.75964870
    96  N          0.43547000       0.02997000       0.25964870
    97  H          0.97660000       0.44750000       0.70340000
    98  H          0.52340000       0.55250000       0.20340000
    99  H          0.02340000       0.94750000       0.79660000
   100  H          0.47660000       0.05250000       0.29660000
   101  H          0.87440000       0.55180000       0.73710000
   102  H          0.62560000       0.44820000       0.23710000
   103  H          0.12560000       0.05180000       0.76290000
   104  H          0.37440000       0.94820000       0.26290000
   105  H          0.87590000       0.39360000       0.75380000
   106  H          0.62410000       0.60640000       0.25380000
   107  H          0.12410000       0.89360000       0.74620000
   108  H          0.37590000       0.10640000       0.24620000
   109  N          0.32793000       0.44203000       0.74849130
   110  N          0.17207000       0.55797000       0.24849130
   111  N          0.67207000       0.94203000       0.75150870
   112  N          0.82793000       0.05797000       0.25150870
   113  H          0.33710000       0.53810000       0.74590000
   114  H          0.16290000       0.46190000       0.24590000
   115  H          0.66290000       0.03810000       0.75410000
   116  H          0.83710000       0.96190000       0.25410000
   117  O          0.16783000       0.25443000       0.77666120
   118  O          0.33217000       0.74557000       0.27666120
   119  O          0.83217000       0.75443000       0.72333880
   120  O          0.66783000       0.24557000       0.22333880
   121  O          0.87367000       0.57132000       0.85979110
   122  O          0.62633000       0.42868000       0.35979110
   123  O          0.12633000       0.07132000       0.64020890
   124  O          0.37367000       0.92868000       0.14020890
   125  O          0.61213000       0.47473000       0.80444120
   126  O          0.88787000       0.52527000       0.30444120
   127  O          0.38787000       0.97473000       0.69555880
   128  O          0.11213000       0.02527000       0.19555880
   129  O          0.70453000       0.26343000       0.76736120
   130  O          0.79547000       0.73657000       0.26736120
   131  O          0.29547000       0.76343000       0.73263880
   132  O          0.20453000       0.23657000       0.23263880
   133  H          0.77450000       0.52650000       0.83520000
   134  H          0.72550000       0.47350000       0.33520000
   135  H          0.22550000       0.02650000       0.66480000
   136  H          0.27450000       0.97350000       0.16480000
   137  C          0.11056000       0.43755000       0.58312000
   138  C          0.38944000       0.56245000       0.08312000
   139  C          0.88944000       0.93755000       0.91688000
   140  C          0.61056000       0.06245000       0.41688000
   141  H          0.03550000       0.41230000       0.55040000
   142  H          0.46450000       0.58770000       0.05040000
   143  H          0.96450000       0.91230000       0.94960000
   144  H          0.53550000       0.08770000       0.44960000
   145  H          0.21660000       0.40460000       0.57050000
   146  H          0.28340000       0.59540000       0.07050000
   147  H          0.78340000       0.90460000       0.92950000
   148  H          0.71660000       0.09540000       0.42950000
   149  C          0.11116000       0.59895000       0.59282000
   150  C          0.38884000       0.40105000       0.09282000
   151  C          0.88884000       0.09895000       0.90718000
   152  C          0.61116000       0.90105000       0.40718000
   153  H          0.00350000       0.63040000       0.60410000
   154  H          0.49650000       0.36960000       0.10410000
   155  H         -0.00350000       0.13040000       0.89590000
   156  H          0.50350000       0.86960000       0.39590000
   157  H          0.18130000       0.62160000       0.62740000
   158  H          0.31870000       0.37840000       0.12740000
   159  H          0.81870000       0.12160000       0.87260000
   160  H          0.68130000       0.87840000       0.37260000
   161  C          0.16259000       0.68506000       0.54023000
   162  C          0.33741000       0.31494000       0.04023000
   163  C          0.83741000       0.18506000       0.95977000
   164  C          0.66259000       0.81494000       0.45977000
   165  H          0.26930000       0.65550000       0.52870000
   166  H          0.23070000       0.34450000       0.02870000
   167  H          0.73070000       0.15550000       0.97130000
   168  H          0.76930000       0.84450000       0.47130000
   169  H          0.16170000       0.78970000       0.55050000
   170  H          0.33830000       0.21030000       0.05050000
   171  H          0.83830000       0.28970000       0.94950000
   172  H          0.66170000       0.71030000       0.44950000
   173  H          0.09070000       0.66740000       0.50620000
   174  H          0.40930000       0.33260000       0.00620000
   175  H          0.90930000       0.16740000      -0.00620000
   176  H          0.59070000       0.83260000       0.49380000
   177  O          0.06684000       0.36533000       0.63662130
   178  O          0.43316000       0.63467000       0.13662130
   179  O          0.93316000       0.86533000       0.86337870
   180  O          0.56684000       0.13467000       0.36337870
   181  H          0.10230000       0.27920000       0.63620000
   182  H          0.39770000       0.72080000       0.13620000
   183  H          0.89770000       0.77920000       0.86380000
   184  H          0.60230000       0.22080000       0.36380000
