data_UQIFUX
_symmetry_space_group_name_H-M    'P1'
_symmetry_Int_Tables_number       1
loop_
_symmetry_equiv_pos_site_id
_symmetry_equiv_pos_as_xyz
1 x,y,z
_cell_length_a                   8.32603
_cell_length_b                   12.97913
_cell_length_c                   11.27974
_cell_angle_alpha                90.0
_cell_angle_beta                 109.5954
_cell_angle_gamma                90.0
loop_
_atom_site_label
_atom_site_type_symbol
_atom_site_fract_x
_atom_site_fract_y
_atom_site_fract_z
     1  C          0.74032000       0.28945140       0.41475170
     2  C          0.75968000       0.78945140       0.08524830
     3  C          0.25968000       0.71054860       0.58524830
     4  C          0.24032000       0.21054860       0.91475170
     5  H          0.82310000       0.28590000       0.37640000
     6  H          0.67690000       0.78590000       0.12360000
     7  H          0.17690000       0.71410000       0.62360000
     8  H          0.32310000       0.21410000       0.87640000
     9  C          0.73653000       0.37300150       0.48751190
    10  C          0.76347000       0.87300150       0.01248810
    11  C          0.26347000       0.62699850       0.51248810
    12  C          0.23653000       0.12699850      -0.01248810
    13  H          0.81560000       0.42580000       0.49770000
    14  H          0.68440000       0.92580000       0.00230000
    15  H          0.18440000       0.57420000       0.50230000
    16  H          0.31560000       0.07420000      -0.00230000
    17  C          0.61453000       0.37908140       0.54633180
    18  C          0.88547000       0.87908140       0.95366820
    19  C          0.38547000       0.62091860       0.45366820
    20  C          0.11453000       0.12091860       0.04633180
    21  H          0.61380000       0.43560000       0.59680000
    22  H          0.88620000       0.93560000       0.90320000
    23  H          0.38620000       0.56440000       0.40320000
    24  H          0.11380000       0.06440000       0.09680000
    25  C          0.49592000       0.30324130       0.53100160
    26  C          0.00408000       0.80324130       0.96899840
    27  C          0.50408000       0.69675870       0.46899840
    28  C         -0.00408000       0.19675870       0.03100160
    29  H          0.41450000       0.30830000       0.57050000
    30  H          0.08550000       0.80830000       0.92950000
    31  H          0.58550000       0.69170000       0.42950000
    32  H          0.91450000       0.19170000       0.07050000
    33  C          0.24452000       0.98291870       0.35608160
    34  C          0.25548000       0.48291870       0.14391840
    35  C          0.75548000       0.01708130       0.64391840
    36  C          0.74452000       0.51708130       0.85608160
    37  H          0.16410000      -0.00710000       0.39560000
    38  H          0.33590000       0.49290000       0.10440000
    39  H          0.83590000       0.00710000       0.60440000
    40  H          0.66410000       0.50710000       0.89560000
    41  C          0.23863000       0.89645870       0.28638190
    42  C          0.26137000       0.39645870       0.21361810
    43  C          0.76137000       0.10354130       0.71361810
    44  C          0.73863000       0.60354130       0.78638190
    45  H          0.15380000       0.84760000       0.27840000
    46  H          0.34620000       0.34760000       0.22160000
    47  H          0.84620000       0.15240000       0.72160000
    48  H          0.65380000       0.65240000       0.77840000
    49  C          0.35913000       0.88072860       0.22683190
    50  C          0.14087000       0.38072860       0.27316810
    51  C          0.64087000       0.11927140       0.77316810
    52  C          0.85913000       0.61927140       0.72683190
    53  H          0.35480000       0.82130000       0.17990000
    54  H          0.14520000       0.32130000       0.32010000
    55  H          0.64520000       0.17870000       0.82010000
    56  H          0.85480000       0.67870000       0.67990000
    57  C          0.48232000       0.95194870       0.23731160
    58  C          0.01768000       0.45194870       0.26268840
    59  C          0.51768000       0.04805130       0.76268840
    60  C         -0.01768000       0.54805130       0.73731160
    61  H          0.56060000       0.94070000       0.19610000
    62  H          0.93940000       0.44070000       0.30390000
    63  H          0.43940000       0.05930000       0.80390000
    64  H          0.06060000       0.55930000       0.69610000
    65  C          0.62752000       0.11807120       0.32372150
    66  C          0.87248000       0.61807120       0.17627850
    67  C          0.37248000       0.88192880       0.67627850
    68  C          0.12752000       0.38192880       0.82372150
    69  N          0.37732160       0.14236100       0.43983130
    70  N          0.12267840       0.64236100       0.06016870
    71  N          0.62267840       0.85763900       0.56016870
    72  N          0.87732160       0.35763900       0.93983130
    73  H          0.29641900       0.14871500       0.48411500
    74  H          0.20358100       0.64871500       0.01588500
    75  H          0.70358100       0.85128500       0.51588500
    76  H          0.79641900       0.35128500       0.98411500
    77  C          0.62152000       0.20842110       0.39656140
    78  C          0.87848000       0.70842110       0.10343860
    79  C          0.37848000       0.79157890       0.60343860
    80  C          0.12152000       0.29157890       0.89656140
    81  C          0.49722000       0.21709110       0.45504140
    82  C          0.00278000       0.71709110       0.04495860
    83  C          0.50278000       0.78290890       0.54495860
    84  C         -0.00278000       0.28290890       0.95504140
    85  C          0.49512000       0.04287110       0.30911140
    86  C          0.00488000       0.54287110       0.19088860
    87  C          0.50488000       0.95712890       0.69088860
    88  C         -0.00488000       0.45712890       0.80911140
    89  C          0.37222000       0.05703120       0.36831140
    90  C          0.12778000       0.55703120       0.13168860
    91  C          0.62778000       0.94296880       0.63168860
    92  C          0.87222000       0.44296880       0.86831140
    93  S          0.78334700       0.10036400       0.26120500
    94  S          0.71665300       0.60036400       0.23879500
    95  S          0.21665300       0.89963600       0.73879500
    96  S          0.28334700       0.39963600       0.76120500
    97  N          0.13372000       0.15600160       0.56918180
    98  N          0.36628000       0.65600160       0.93081820
    99  N          0.86628000       0.84399840       0.43081820
   100  N          0.63372000       0.34399840       0.06918180
   101  H          0.01420000       0.15051800       0.50861900
   102  H          0.48580000       0.65051800      -0.00861900
   103  H         -0.01420000       0.84948200       0.49138100
   104  H          0.51420000       0.34948200       0.00861900
   105  H          0.15430000       0.09651300       0.62920000
   106  H          0.34570000       0.59651300       0.87080000
   107  H          0.84570000       0.90348700       0.37080000
   108  H          0.65430000       0.40348700       0.12920000
   109  H          0.14030000       0.22291300       0.61620000
   110  H          0.35970000       0.72291300       0.88380000
   111  H          0.85970000       0.77708700       0.38380000
   112  H          0.64030000       0.27708700       0.11620000
