data_UQILUE
_symmetry_space_group_name_H-M    'P1'
_symmetry_Int_Tables_number       1
loop_
_symmetry_equiv_pos_site_id
_symmetry_equiv_pos_as_xyz
1 x,y,z
_cell_length_a                   8.78549
_cell_length_b                   12.925013
_cell_length_c                   14.414715
_cell_angle_alpha                93.7337
_cell_angle_beta                 103.2237
_cell_angle_gamma                95.1087
loop_
_atom_site_label
_atom_site_type_symbol
_atom_site_fract_x
_atom_site_fract_y
_atom_site_fract_z
     1  C          0.81537000       0.76195000       0.78454000
     2  C          0.68147000       0.74205000       0.82114000
     3  H          0.57900000       0.74060000       0.78090000
     4  C          0.70148000       0.72485000       0.91704000
     5  C          0.84829000       0.72455000       0.97724000
     6  H          0.85970000       0.71150000       0.04240000
     7  C         -0.02083000       0.74415000       0.93904000
     8  C          0.96418000       0.76315000       0.84454000
     9  H          0.05520000       0.77700000       0.82040000
    10  C          0.79027000       0.78276000       0.67984000
    11  H          0.68620000       0.74460000       0.64610000
    12  C          0.91257000       0.73965000       0.63224000
    13  H          0.87620000       0.73860000       0.56250000
    14  H          0.92730000       0.66860000       0.64970000
    15  H          0.01250000       0.78410000       0.65370000
    16  C          0.77398000       0.92375000       0.56834000
    17  H          0.87860000       0.91670000       0.55550000
    18  H          0.69600000       0.87360000       0.52270000
    19  C          0.73249000       0.03315000       0.55344000
    20  H          0.62430000       0.03850000       0.56130000
    21  H          0.73510000       0.04870000       0.48750000
    22  C          0.84728000       0.11265000       0.62474000
    23  H          0.95520000       0.10690000       0.61480000
    24  C          0.84588000       0.08485000       0.72564000
    25  H          0.73980000       0.09070000       0.73680000
    26  H          0.92150000       0.13510000       0.77240000
    27  C          0.88928000       0.97415000       0.74134000
    28  H         -0.00240000       0.96880000       0.73410000
    29  H          0.88460000       0.95790000       0.80680000
    30  C          0.80878000       0.22285000       0.61024000
    31  H          0.69870000       0.22980000       0.61330000
    32  H          0.87950000       0.27260000       0.66000000
    33  C          0.79648000       0.33325000       0.48144000
    34  C          0.82968000       0.34585000       0.39165000
    35  C          0.80098000       0.43606000       0.35084000
    36  H          0.82660000       0.44450000       0.29100000
    37  C          0.73488000       0.51785000       0.39214000
    38  C          0.70197000       0.50055000       0.48024000
    39  C          0.73237000       0.41015000       0.52564000
    40  H          0.70910000       0.40160000       0.58610000
    41  C          0.89621100       0.25817000       0.34546000
    42  H          0.00260000       0.24330000       0.38110000
    43  C          0.86520000       0.23661000       0.24087000
    44  H          0.79690000       0.28160000       0.20060000
    45  H          0.95090000       0.21250000       0.21360000
    46  C          0.79211500       0.16568000       0.29707000
    47  H          0.83180000       0.09670000       0.30520000
    48  H          0.67790000       0.16580000       0.29220000
    49  C          0.71577000       0.61525000       0.34024000
    50  C          0.54049000       0.76796000       0.20184000
    51  H          0.43790000       0.72700000       0.19290000
    52  H          0.60840000       0.72870000       0.17080000
    53  H          0.52610000       0.83410000       0.17300000
    54  N          0.77586000       0.89826000       0.66923000
    55  H          0.66910000       0.90990000       0.67870000
    56  N          0.63446000       0.68554000       0.37433000
    57  O          0.83106000       0.24254000       0.51763000
    58  O          0.77625000       0.62274000       0.27143000
    59  O          0.51985000       0.85144000       0.36503000
    60  O          0.78305000       0.84984000       0.33683000
    61  F          0.63974000       0.57223000       0.52792000
    62  S          0.62841150       0.79310110       0.32550900
    63  Cl         0.53372000       0.70236840       0.96118110
    64  Cl         0.16604190       0.74273860       0.01332120
    65  C          0.14277000       0.96285000       0.23594000
    66  C          0.28717000       0.98385000       0.21164000
    67  H          0.38310000       0.98100000       0.25740000
    68  C          0.28758000       0.00875000       0.11994000
    69  C          0.14929000       0.01655000       0.05224000
    70  H          0.15060000       0.03540000       0.98980000
    71  C          0.00928000      -0.00435000       0.07974000
    72  C          0.00318000       0.96885000       0.17014000
    73  H          0.90510000       0.95470000       0.18650000
    74  C          0.13657000       0.94235000       0.33844000
    75  H          0.02410000       0.93650000       0.34270000
    76  C          0.22628000       0.03155000       0.40834000
    77  H          0.20730000       0.02240000       0.47180000
    78  H          0.19050000       0.09750000       0.38690000
    79  H          0.33890000       0.03220000       0.41140000
    80  C          0.19308000       0.81915000       0.46474000
    81  H          0.25380000       0.87670000       0.51050000
    82  H          0.08190000       0.81620000       0.46910000
    83  C          0.25558000       0.71815000       0.49174000
    84  H          0.24510000       0.70600000       0.55710000
    85  H          0.36870000       0.72270000       0.49180000
    86  C          0.16747000       0.62695000       0.42224000
    87  H          0.05390000       0.62260000       0.42410000
    88  C          0.18028000       0.64925000       0.32124000
    89  H          0.29170000       0.65190000       0.31770000
    90  H          0.12000000       0.59170000       0.27490000
    91  C          0.11827000       0.75085000       0.29414000
    92  H          0.00430000       0.74580000       0.29190000
    93  H          0.13200000       0.76390000       0.22940000
    94  C          0.22708000       0.52495000       0.44754000
    95  H          0.16920000       0.46760000       0.40020000
    96  H          0.34040000       0.52730000       0.44880000
    97  C          0.23458000       0.41915000       0.57914000
    98  C          0.19067000       0.40495000       0.66614000
    99  C          0.21627000       0.31265000       0.70624000
   100  H          0.18420000       0.30200000       0.76380000
   101  C          0.28667000       0.23355000       0.66714000
   102  C          0.33477000       0.25455000       0.58484000
   103  C          0.30947000       0.34335000       0.53904000
   104  H          0.34210000       0.35290000       0.48150000
   105  C          0.12339000       0.49105000       0.71015000
   106  H          0.02510000       0.51290000       0.66960000
   107  C          0.23391200       0.57719000       0.76968000
   108  H          0.34790000       0.57030000       0.78110000
   109  H          0.20550000       0.64910000       0.76350000
   110  C          0.13851900       0.50599000       0.81547000
   111  H          0.05050000       0.53360000       0.83790000
   112  H          0.19300000       0.45470000       0.85550000
   113  C          0.29937000       0.13395000       0.71554000
   114  C          0.47061100       0.97023000       0.84435000
   115  H          0.41050000       0.01190000       0.87920000
   116  H          0.57570000       0.00690000       0.85090000
   117  H          0.48020000       0.90240000       0.87050000
   118  N          0.20296000       0.84124000       0.36503000
   119  H          0.31630000       0.84820000       0.36280000
   120  N          0.37177000       0.06094000       0.67784000
   121  O          0.20056000       0.50944000       0.54163000
   122  O          0.23886000       0.12514000       0.78553000
   123  O          0.46965000       0.89056000       0.67553000
   124  O          0.21836000       0.89836000       0.71435000
   125  F          0.41545000       0.18713000       0.54372000
   126  S          0.37243160       0.95147890       0.72199900
   127  Cl         0.46772000       0.03373150       0.09001110
   128  Cl         0.83108000       0.00799160      -0.00168120
   129  C          0.35611300       0.35909000       0.16477000
   130  H          0.45760000       0.33490000       0.15640000
   131  C          0.35981500       0.47519000       0.14769000
   132  H          0.25810000       0.49930000       0.15010000
   133  H          0.38070000       0.48490000       0.08470000
   134  H          0.44310000       0.51520000       0.19730000
   135  C          0.34241800       0.34051300       0.26438000
   136  H          0.42230000       0.38740000       0.31050000
   137  H          0.35850000       0.26800000       0.27600000
   138  H          0.23760000       0.35410000       0.27150000
   139  C          0.22181400       0.29598000       0.08836000
   140  H          0.19800000       0.22670000       0.11030000
   141  H          0.12600000       0.33260000       0.08070000
   142  C          0.26281200       0.28168000      -0.00616000
   143  H          0.28920000       0.35050000       0.97190000
   144  H          0.35570000       0.24230000       0.00010000
   145  O          0.13318000       0.22635000       0.92636000
   146  H          0.16380000       0.20150000       0.87940000
   147  C          0.67121500       0.37969000       0.89373000
   148  H          0.57120000       0.40390000       0.90460000
   149  C          0.66471500       0.26949000       0.91169000
   150  H          0.58360000       0.22890000       0.86100000
   151  H          0.63920000       0.26110000       0.97370000
   152  H          0.76700000       0.24440000       0.91240000
   153  C          0.67801800       0.40441500       0.79351000
   154  H          0.77820000       0.38700000       0.78100000
   155  H          0.66940000       0.47890000       0.78760000
   156  H          0.59090000       0.36340000       0.74720000
   157  C          0.80591300       0.44537000       0.96794000
   158  H          0.90020000       0.40700000       0.97910000
   159  H          0.83270000       0.51160000       0.94180000
   160  C          0.76321000       0.46917000       0.06215000
   161  H          0.66970000       0.50820000       0.05180000
   162  H          0.73680000       0.40320000       0.08910000
   163  O          0.88957000       0.52855000       0.12674000
   164  H          0.85560000       0.56230000       0.16810000
