data_URIPOD
_symmetry_space_group_name_H-M    'P1'
_symmetry_Int_Tables_number       1
loop_
_symmetry_equiv_pos_site_id
_symmetry_equiv_pos_as_xyz
1 x,y,z
_cell_length_a                   8.485901
_cell_length_b                   9.57482
_cell_length_c                   26.55914
_cell_angle_alpha                90.0
_cell_angle_beta                 93.16701
_cell_angle_gamma                90.0
loop_
_atom_site_label
_atom_site_type_symbol
_atom_site_fract_x
_atom_site_fract_y
_atom_site_fract_z
     1  S          0.61400500       0.17788400       0.41407200
     2  S          0.38599500       0.67788400       0.08592800
     3  S          0.38599500       0.82211600       0.58592800
     4  S          0.61400500       0.32211600       0.91407200
     5  O          0.67712140       0.05015130       0.43597500
     6  O          0.32287860       0.55015130       0.06402500
     7  O          0.32287860       0.94984870       0.56402500
     8  O          0.67712140       0.44984870       0.93597500
     9  O          0.65393150       0.21278140       0.36354400
    10  O          0.34606850       0.71278140       0.13645600
    11  O          0.34606850       0.78721860       0.63645600
    12  O          0.65393150       0.28721860       0.86354400
    13  O          0.36129160       0.16074140       0.28723500
    14  O          0.63870840       0.66074140       0.21276500
    15  O          0.63870840       0.83925860       0.71276500
    16  O          0.36129160       0.33925860       0.78723500
    17  O          0.38802170       0.37651140       0.31953500
    18  O          0.61197830       0.87651140       0.18046500
    19  O          0.61197830       0.62348860       0.68046500
    20  O          0.38802170       0.12348860       0.81953500
    21  O         -0.01515820       0.22268170       0.57415600
    22  O          0.01515820       0.72268170       0.92584400
    23  O          0.01515820       0.77731830       0.42584400
    24  O         -0.01515820       0.27731830       0.07415600
    25  O         -0.01586810       0.43731180       0.60032600
    26  O          0.01586810       0.93731180       0.89967400
    27  O          0.01586810       0.56268820       0.39967400
    28  O         -0.01586810       0.06268820       0.10032600
    29  N          0.53549190       0.49325160       0.40505600
    30  N          0.46450810      -0.00674840       0.09494400
    31  N          0.46450810       0.50674840       0.59494400
    32  N          0.53549190       0.00674840       0.90505600
    33  H          0.49617600       0.42686300       0.38650800
    34  H          0.50382400       0.92686300       0.11349200
    35  H          0.50382400       0.57313700       0.61349200
    36  H          0.49617600       0.07313700       0.88650800
    37  N          0.64072000       0.01459180       0.27126600
    38  N          0.35928000       0.51459180       0.22873400
    39  N          0.35928000       0.98540820       0.72873400
    40  N          0.64072000       0.48540820       0.77126600
    41  H          0.61730000       0.98030000       0.24691100
    42  H          0.38270000       0.48030000       0.25308900
    43  H          0.38270000       0.01970000       0.75308900
    44  H          0.61730000       0.51970000       0.74691100
    45  H          0.71630000       0.07730000       0.26709000
    46  H          0.28370000       0.57730000       0.23291000
    47  H          0.28370000       0.92270000       0.73291000
    48  H          0.71630000       0.42270000       0.76709000
    49  N          0.94102000       0.34526190       0.57023600
    50  N          0.05898000       0.84526190       0.92976400
    51  N          0.05898000       0.65473810       0.42976400
    52  N          0.94102000       0.15473810       0.07023600
    53  C          0.35942000       0.24772000       0.32211700
    54  C          0.64058000       0.74772000       0.17788300
    55  C          0.64058000       0.75228000       0.67788300
    56  C          0.35942000       0.25228000       0.82211700
    57  C          0.30652000       0.19588180       0.37281700
    58  C          0.69348000       0.69588180       0.12718300
    59  C          0.69348000       0.80411820       0.62718300
    60  C          0.30652000       0.30411820       0.87281700
    61  C          0.40572000       0.16820170       0.41547600
    62  C          0.59428000       0.66820170       0.08452400
    63  C          0.59428000       0.83179830       0.58452400
    64  C          0.40572000       0.33179830       0.91547600
    65  C          0.34612000       0.12242180       0.46066600
    66  C          0.65388000       0.62242180       0.03933400
    67  C          0.65388000       0.87757820       0.53933400
    68  C          0.34612000       0.37757820       0.96066600
    69  H          0.41458600       0.10430600       0.48844500
    70  H          0.58541400       0.60430600       0.01155500
    71  H          0.58541400       0.89569400       0.51155500
    72  H          0.41458600       0.39569400       0.98844500
    73  C          0.63242000       0.45745190       0.44447600
    74  C          0.36758000       0.95745190       0.05552400
    75  C          0.36758000       0.54254810       0.55552400
    76  C          0.63242000       0.04254810       0.94447600
    77  C          0.77492000       0.27972000       0.49597600
    78  C          0.22508000       0.77972000       0.00402400
    79  C          0.22508000       0.72028000       0.50402400
    80  C          0.77492000       0.22028000      -0.00402400
    81  H          0.80159700       0.18674400       0.50203000
    82  H          0.19840300       0.68674400      -0.00203000
    83  H          0.19840300       0.81325600       0.49797000
    84  H          0.80159700       0.31325600       0.00203000
    85  C          0.79322000       0.52332000       0.51991700
    86  C          0.20678000       0.02332000       0.98008300
    87  C          0.20678000       0.47668000       0.48008300
    88  C          0.79322000       0.97668000       0.01991700
    89  H          0.83228900       0.59184500       0.54205200
    90  H          0.16771100       0.09184500       0.95794800
    91  H          0.16771100       0.40815500       0.45794800
    92  H          0.83228900       0.90815500       0.04205200
    93  C          0.49132000       0.63608190       0.39106700
    94  C          0.50868000       0.13608190       0.10893300
    95  C          0.50868000       0.36391810       0.60893300
    96  C          0.49132000       0.86391810       0.89106700
    97  H          0.46809200       0.68761300       0.42121500
    98  H          0.53190800       0.18761300       0.07878500
    99  H          0.53190800       0.31238700       0.57878500
   100  H          0.46809200       0.81238700       0.92121500
   101  H          0.39611300       0.63401500       0.36910500
   102  H          0.60388700       0.13401500       0.13089500
   103  H          0.60388700       0.36598500       0.63089500
   104  H          0.39611300       0.86598500       0.86910500
   105  C          0.67542000       0.31543180       0.45478700
   106  C          0.32458000       0.81543180       0.04521300
   107  C          0.32458000       0.68456820       0.54521300
   108  C          0.67542000       0.18456820       0.95478700
   109  C          0.83392000       0.38342000       0.52792600
   110  C          0.16608000       0.88342000       0.97207400
   111  C          0.16608000       0.61658000       0.47207400
   112  C          0.83392000       0.11658000       0.02792600
   113  C          0.18542000       0.10407190       0.46403700
   114  C          0.81458000       0.60407190       0.03596300
   115  C          0.81458000       0.89592810       0.53596300
   116  C          0.18542000       0.39592810       0.96403700
   117  H          0.14487200       0.07582400       0.49422300
   118  H          0.85512800       0.57582400       0.00577700
   119  H          0.85512800       0.92417600       0.50577700
   120  H          0.14487200       0.42417600       0.99422300
   121  C          0.69542000       0.55872000       0.47921700
   122  C          0.30458000       0.05872000       0.02078300
   123  C          0.30458000       0.44128000       0.52078300
   124  C          0.69542000       0.94128000       0.97921700
   125  H          0.66924600       0.65214600       0.47409400
   126  H          0.33075400       0.15214600       0.02590600
   127  H          0.33075400       0.34785400       0.52590600
   128  H          0.66924600       0.84785400       0.97409400
   129  C          0.08492000       0.12842000       0.42164700
   130  C          0.91508000       0.62842000       0.07835300
   131  C          0.91508000       0.87158000       0.57835300
   132  C          0.08492000       0.37158000       0.92164700
   133  H          0.97696600       0.11405000       0.42332500
   134  H          0.02303400       0.61405000       0.07667500
   135  H          0.02303400       0.88595000       0.57667500
   136  H          0.97696600       0.38595000       0.92332500
   137  C          0.14472000       0.17379190       0.37712700
   138  C          0.85528000       0.67379190       0.12287300
   139  C          0.85528000       0.82620810       0.62287300
   140  C          0.14472000       0.32620810       0.87712700
   141  H          0.07566000       0.19006800       0.34932000
   142  H          0.92434000       0.69006800       0.15068000
   143  H          0.92434000       0.80993200       0.65068000
   144  H          0.07566000       0.30993200       0.84932000
   145  C          0.69472000       0.91012000       0.31031700
   146  C          0.30528000       0.41012000       0.18968300
   147  C          0.30528000       0.08988000       0.68968300
   148  C          0.69472000       0.58988000       0.81031700
   149  H          0.75445200       0.95762200       0.33738300
   150  H          0.24554800       0.45762200       0.16261700
   151  H          0.24554800       0.04237800       0.66261700
   152  H          0.75445200       0.54237800       0.83738300
   153  H          0.76428500       0.84330000       0.29539200
   154  H          0.23571500       0.34330000       0.20460800
   155  H          0.23571500       0.15670000       0.70460800
   156  H          0.76428500       0.65670000       0.79539200
   157  C          0.55842000       0.83287190       0.33189700
   158  C          0.44158000       0.33287190       0.16810300
   159  C          0.44158000       0.16712810       0.66810300
   160  C          0.55842000       0.66712810       0.83189700
   161  H          0.48836700       0.79779300       0.30468900
   162  H          0.51163300       0.29779300       0.19531100
   163  H          0.51163300       0.20220700       0.69531100
   164  H          0.48836700       0.70220700       0.80468900
   165  H          0.49891900       0.89611900       0.35213000
   166  H          0.50108100       0.39611900       0.14787000
   167  H          0.50108100       0.10388100       0.64787000
   168  H          0.49891900       0.60388100       0.85213000
   169  C          0.62082000       0.71182000       0.36432800
   170  C          0.37918000       0.21182000       0.13567200
   171  C          0.37918000       0.28818000       0.63567200
   172  C          0.62082000       0.78818000       0.86432800
   173  H          0.69848200       0.74687700       0.38934200
   174  H          0.30151800       0.24687700       0.11065800
   175  H          0.30151800       0.25312300       0.61065800
   176  H          0.69848200       0.75312300       0.88934200
   177  H          0.67330100       0.64574100       0.34319200
   178  H          0.32669900       0.14574100       0.15680800
   179  H          0.32669900       0.35425900       0.65680800
   180  H          0.67330100       0.85425900       0.84319200
   181  S          0.95767500       0.31998500       0.25734200
   182  S          0.04232500       0.81998500       0.24265800
   183  S          0.04232500       0.68001500       0.74265800
   184  S          0.95767500       0.18001500       0.75734200
   185  O          0.91312180       0.17065150       0.26645600
   186  O          0.08687820       0.67065150       0.23354400
   187  O          0.08687820       0.82934850       0.73354400
   188  O          0.91312180       0.32934850       0.76645600
   189  C          0.82213000       0.42632000       0.28878800
   190  C          0.17787000       0.92632000       0.21121200
   191  C          0.17787000       0.57368000       0.71121200
   192  C          0.82213000       0.07368000       0.78878800
   193  H          0.71668000       0.39298000       0.28141400
   194  H          0.28332000       0.89298000       0.21858600
   195  H          0.28332000       0.60702000       0.71858600
   196  H          0.71668000       0.10702000       0.78141400
   197  H          0.83032200       0.52110400       0.27740600
   198  H          0.16967800       0.02110400       0.22259400
   199  H          0.16967800       0.47889600       0.72259400
   200  H          0.83032200       0.97889600       0.77740600
   201  H          0.84619100       0.42237600       0.32450000
   202  H          0.15380900       0.92237600       0.17550000
   203  H          0.15380900       0.57762400       0.67550000
   204  H          0.84619100       0.07762400       0.82450000
   205  C          0.89173000       0.35923000       0.19396800
   206  C          0.10827000       0.85923000       0.30603200
   207  C          0.10827000       0.64077000       0.80603200
   208  C          0.89173000       0.14077000       0.69396800
   209  H          0.94362200       0.29863900       0.17130800
   210  H          0.05637800       0.79863900       0.32869200
   211  H          0.05637800       0.70136100       0.82869200
   212  H          0.94362200       0.20136100       0.67130800
   213  H          0.91635000       0.45459900       0.18654600
   214  H          0.08365000       0.95459900       0.31345400
   215  H          0.08365000       0.54540100       0.81345400
   216  H          0.91635000       0.04540100       0.68654600
   217  H          0.77966100       0.34543700       0.18994100
   218  H          0.22033900       0.84543700       0.31005900
   219  H          0.22033900       0.65456300       0.81005900
   220  H          0.77966100       0.15456300       0.68994100
