data_URODIP
_symmetry_space_group_name_H-M    'P1'
_symmetry_Int_Tables_number       1
loop_
_symmetry_equiv_pos_site_id
_symmetry_equiv_pos_as_xyz
1 x,y,z
_cell_length_a                   9.896501
_cell_length_b                   4.696301
_cell_length_c                   16.118801
_cell_angle_alpha                90.0
_cell_angle_beta                 106.98901
_cell_angle_gamma                90.0
loop_
_atom_site_label
_atom_site_type_symbol
_atom_site_fract_x
_atom_site_fract_y
_atom_site_fract_z
     1  O          0.91560500       0.21942130       0.43123300
     2  O          0.08439500       0.71942130       0.56876700
     3  O          0.72761500       0.49154140       0.36794400
     4  O          0.27238500      -0.00845860       0.63205600
     5  N          0.09681600       0.60459140       0.40112400
     6  N          0.90318400       0.10459140       0.59887600
     7  H          0.13361500       0.44740000       0.39839000
     8  H          0.86638500       0.94740000       0.60161000
     9  H          0.14541400       0.75130000       0.38419000
    10  H          0.85458600       0.25130000       0.61581000
    11  H          0.09671300       0.62530000       0.45428000
    12  H          0.90328700       0.12530000       0.54572000
    13  C          0.85698600       0.42587140       0.38585400
    14  C          0.14301400       0.92587140       0.61414600
    15  C          0.94775600       0.60913150       0.34410400
    16  C          0.05224400       0.10913150       0.65589600
    17  H          0.91180000       0.80940000       0.33820000
    18  H          0.08820000       0.30940000       0.66180000
    19  C          0.93800800       0.48938190       0.25387400
    20  C          0.06199200      -0.01061810       0.74612600
    21  H          0.96840000       0.28770000       0.26030000
    22  H          0.03160000       0.78770000       0.73970000
    23  H          0.83780000       0.49340000       0.21820000
    24  H          0.16220000      -0.00660000       0.78180000
    25  C          0.02592160       0.64733000       0.20526700
    26  C          0.97407840       0.14733000       0.79473300
    27  H         -0.00780000       0.84640000       0.19550000
    28  H          0.00780000       0.34640000       0.80450000
    29  H          0.12560000       0.65180000       0.24180000
    30  H          0.87440000       0.15180000       0.75820000
    31  C          0.01921170       0.51344000       0.11872700
    32  C          0.98078830       0.01344000       0.88127300
    33  H          0.07460000       0.62800000       0.08960000
    34  H          0.92540000       0.12800000       0.91040000
    35  H          0.92070000       0.50550000       0.08250000
    36  H          0.07930000       0.00550000       0.91750000
    37  H          0.05800000       0.32010000       0.12810000
    38  H          0.94200000       0.82010000       0.87190000
    39  S          0.53616300       0.13864800       0.11055416
    40  S          0.46383700       0.63864800       0.88944584
    41  O          0.41687500       0.37620130       0.43153300
    42  O          0.58312500       0.87620130       0.56846700
    43  O          0.22934500       0.10166130       0.36894400
    44  O          0.77065500       0.60166130       0.63105600
    45  N          0.59909500      -0.01009860       0.40350400
    46  N          0.40090500       0.48990140       0.59649600
    47  H          0.64061400       0.15740000       0.39948000
    48  H          0.35938600       0.65740000       0.60052000
    49  H          0.64461400       0.84730000       0.38819000
    50  H          0.35538600       0.34730000       0.61181000
    51  H          0.59721400       0.95530000       0.45799000
    52  H          0.40278600       0.45530000       0.54201000
    53  C          0.35863600       0.16624150       0.38714400
    54  C          0.64136400       0.66624150       0.61285600
    55  C          0.45045600      -0.01598860       0.34623400
    56  C          0.54954400       0.48401140       0.65376600
    57  H          0.41480000       0.78360000       0.33950000
    58  H          0.58520000       0.28360000       0.66050000
    59  C          0.44172700       0.10959180       0.25685400
    60  C          0.55827300       0.60959180       0.74314600
    61  H          0.34270000       0.09710000       0.21970000
    62  H          0.65730000       0.59710000       0.78030000
    63  H          0.46720000       0.31380000       0.26410000
    64  H          0.53280000       0.81380000       0.73590000
    65  C          0.53674100       0.96392000       0.21037500
    66  C          0.46325900       0.46392000       0.78962500
    67  H          0.50510000       0.76450000       0.19750000
    68  H          0.49490000       0.26450000       0.80250000
    69  H          0.63460000       0.95970000       0.24950000
    70  H          0.36540000       0.45970000       0.75050000
    71  C          0.35861170       0.06974000       0.04440700
    72  C          0.64138830       0.56974000       0.95559300
    73  H          0.34680000       0.14010000       0.98550000
    74  H          0.65320000       0.64010000       0.01450000
    75  H          0.29180000       0.16710000       0.06920000
    76  H          0.70820000       0.66710000       0.93080000
    77  H          0.34060000       0.86420000       0.04250000
    78  H          0.65940000       0.36420000       0.95750000
