data_UROXAL
_symmetry_space_group_name_H-M    'P1'
_symmetry_Int_Tables_number       1
loop_
_symmetry_equiv_pos_site_id
_symmetry_equiv_pos_as_xyz
1 x,y,z
_cell_length_a                   5.0583
_cell_length_b                   12.4003
_cell_length_c                   6.9642
_cell_angle_alpha                90.0
_cell_angle_beta                 98.137
_cell_angle_gamma                90.0
loop_
_atom_site_label
_atom_site_type_symbol
_atom_site_fract_x
_atom_site_fract_y
_atom_site_fract_z
     1  C          0.77090000       0.13070000       0.37290000
     2  C          0.22910000       0.63070000       0.12710000
     3  C          0.22910000       0.86930000       0.62710000
     4  C          0.77090000       0.36930000       0.87290000
     5  H          0.47500000       0.20100000       0.22700000
     6  H          0.52500000       0.70100000       0.27300000
     7  H          0.52500000       0.79900000       0.77300000
     8  H          0.47500000       0.29900000       0.72700000
     9  H          0.68000000       0.27800000       0.31900000
    10  H          0.32000000       0.77800000       0.18100000
    11  H          0.32000000       0.72200000       0.68100000
    12  H          0.68000000       0.22200000       0.81900000
    13  H          0.04900000       0.21300000       0.51300000
    14  H          0.95100000       0.71300000      -0.01300000
    15  H          0.95100000       0.78700000       0.48700000
    16  H          0.04900000       0.28700000       0.01300000
    17  H          0.09000000       0.09500000       0.53700000
    18  H          0.91000000       0.59500000       0.96300000
    19  H          0.91000000       0.90500000       0.46300000
    20  H          0.09000000       0.40500000       0.03700000
    21  N         -0.00300000       0.15070000       0.48570000
    22  N          0.00300000       0.65070000       0.01430000
    23  N          0.00300000       0.84930000       0.51430000
    24  N         -0.00300000       0.34930000      -0.01430000
    25  N          0.62150000       0.21360000       0.30470000
    26  N          0.37850000       0.71360000       0.19530000
    27  N          0.37850000       0.78640000       0.69530000
    28  N          0.62150000       0.28640000       0.80470000
    29  O          0.70330000       0.03480000       0.33190000
    30  O          0.29670000       0.53480000       0.16810000
    31  O          0.29670000       0.96520000       0.66810000
    32  O          0.70330000       0.46520000       0.83190000
    33  C          0.12370000       0.02840000       0.05170000
    34  C          0.87630000       0.52840000       0.44830000
    35  C          0.87630000       0.97160000       0.94830000
    36  C          0.12370000       0.47160000       0.55170000
    37  H          0.44600000       0.00200000       0.21100000
    38  H          0.55400000       0.50200000       0.28900000
    39  H          0.55400000      -0.00200000       0.78900000
    40  H          0.44600000       0.49800000       0.71100000
    41  O          0.15520000       0.12450000       0.03880000
    42  O          0.84480000       0.62450000       0.46120000
    43  O          0.84480000       0.87550000       0.96120000
    44  O          0.15520000       0.37550000       0.53880000
    45  O          0.28640000       0.96200000       0.15020000
    46  O          0.71360000       0.46200000       0.34980000
    47  O          0.71360000       0.03800000       0.84980000
    48  O          0.28640000       0.53800000       0.65020000
