data_USAKOP
_symmetry_space_group_name_H-M    'P1'
_symmetry_Int_Tables_number       1
loop_
_symmetry_equiv_pos_site_id
_symmetry_equiv_pos_as_xyz
1 x,y,z
_cell_length_a                   8.4055
_cell_length_b                   23.22512
_cell_length_c                   9.1025
_cell_angle_alpha                90.0
_cell_angle_beta                 115.1839
_cell_angle_gamma                90.0
loop_
_atom_site_label
_atom_site_type_symbol
_atom_site_fract_x
_atom_site_fract_y
_atom_site_fract_z
     1  O          0.95932170       0.13428600       0.31918170
     2  O          0.54067830       0.63428600       0.18081830
     3  O          0.04067830       0.86571400       0.68081830
     4  O          0.45932170       0.36571400       0.81918170
     5  O          0.64797170       0.28758600       0.73088160
     6  O          0.85202830       0.78758600       0.76911840
     7  O          0.35202830       0.71241400       0.26911840
     8  O          0.14797170       0.21241400       0.23088160
     9  O          0.37779170       0.25834700       0.52810180
    10  O          0.12220830       0.75834700       0.97189820
    11  O          0.62220830       0.74165300       0.47189820
    12  O          0.87779170       0.24165300       0.02810180
    13  C          0.59472000       0.17214800       0.42052000
    14  C          0.90528000       0.67214800       0.07948000
    15  C          0.40528000       0.82785200       0.57948000
    16  C          0.09472000       0.32785200       0.92052000
    17  C          0.85912000       0.16069700       0.38572000
    18  C          0.64088000       0.66069700       0.11428000
    19  C          0.14088000       0.83930300       0.61428000
    20  C          0.35912000       0.33930300       0.88572000
    21  C          0.66422000       0.21899800       0.52462000
    22  C          0.83578000       0.71899800       0.97538000
    23  C          0.33578000       0.78100200       0.47538000
    24  C          0.16422000       0.28100200       0.02462000
    25  C          0.68912000       0.14281800       0.35172000
    26  C          0.81088000       0.64281800       0.14828000
    27  C          0.31088000       0.85718200       0.64828000
    28  C          0.18912000       0.35718200       0.85172000
    29  C          0.93472000       0.20625800       0.49112000
    30  C          0.56528000       0.70625800       0.00888000
    31  C          0.06528000       0.79374200       0.50888000
    32  C          0.43472000       0.29374200      -0.00888000
    33  C          0.83773000       0.23459900       0.55912000
    34  C          0.66227000       0.73459900       0.94088000
    35  C          0.16227000       0.76540100       0.44088000
    36  C          0.33773000       0.26540100       0.05912000
    37  B          0.55593000       0.25514900       0.59512000
    38  B          0.94407000       0.75514900       0.90488000
    39  B          0.44407000       0.74485100       0.40488000
    40  B          0.05593000       0.24485100       0.09512000
    41  H          0.63820000       0.11098000       0.28320000
    42  H          0.86180000       0.61098000       0.21680000
    43  H          0.36180000       0.88902000       0.71680000
    44  H          0.13820000       0.38902000       0.78320000
    45  H          0.47530000       0.15988000       0.39420000
    46  H          0.02470000       0.65988000       0.10580000
    47  H          0.52470000       0.84012000       0.60580000
    48  H          0.97530000       0.34012000       0.89420000
    49  H          0.04930000       0.21769000       0.51220000
    50  H          0.45070000       0.71769000      -0.01220000
    51  H          0.95070000       0.78231000       0.48780000
    52  H          0.54930000       0.28231000       0.01220000
    53  H          0.89130000       0.26639000       0.62920000
    54  H          0.60870000       0.76639000       0.87080000
    55  H          0.10870000       0.73361000       0.37080000
    56  H          0.39130000       0.23361000       0.12920000
    57  H          0.89630000       0.10841200       0.24030000
    58  H          0.60370000       0.60841200       0.25970000
    59  H          0.10370000       0.89158800       0.75970000
    60  H          0.39630000       0.39158800       0.74030000
    61  H          0.58330000       0.31001100       0.75330000
    62  H          0.91670000       0.81001100       0.74670000
    63  H          0.41670000       0.68998900       0.24670000
    64  H          0.08330000       0.18998900       0.25330000
    65  H          0.32440000       0.24091100       0.43630000
    66  H          0.17560000       0.74091100       0.06370000
    67  H          0.67560000       0.75908900       0.56370000
    68  H          0.82440000       0.25908900       0.93630000
    69  N          0.79012000       0.05641700       0.07955190
    70  N          0.70988000       0.55641700       0.42044810
    71  N          0.20988000       0.94358300       0.92044810
    72  N          0.29012000       0.44358300       0.57955190
    73  C          0.64342000       0.06845800       0.94452000
    74  C          0.85658000       0.56845800       0.55548000
    75  C          0.35658000       0.93154200       0.05548000
    76  C          0.14342000       0.43154200       0.44452000
    77  C          0.76383000       0.95865200       0.98253000
    78  C          0.73617000       0.45865200       0.51747000
    79  C          0.23617000       0.04134800       0.01747000
    80  C          0.26383000       0.54134800       0.48253000
    81  C          0.85232000       0.00240800       0.09922000
    82  C          0.64768000       0.50240800       0.40078000
    83  C          0.14768000      -0.00240800       0.90078000
    84  C          0.35232000       0.49759200       0.59922000
    85  C          0.55613000       0.02425900       0.82892000
    86  C          0.94387000       0.52425900       0.67108000
    87  C          0.44387000       0.97574100       0.17108000
    88  C          0.05613000       0.47574100       0.32892000
    89  N          0.61562000       0.96993200       0.84942000
    90  N          0.88438000       0.46993200       0.65058000
    91  N          0.38438000       0.03006800       0.15058000
    92  N          0.11562000       0.53006800       0.34942000
    93  C          0.01053000       0.98792890       0.23723000
    94  C          0.48947000       0.48792890       0.26277000
    95  C         -0.01053000       0.01207110       0.76277000
    96  C          0.51053000       0.51207110       0.73723000
    97  C          0.57473000       0.12540100       0.91593000
    98  C          0.92527000       0.62540100       0.58407000
    99  C          0.42527000       0.87459900       0.08407000
   100  C          0.07473000       0.37459900       0.41593000
   101  C          0.83544000       0.90199900       0.00913000
   102  C          0.66456000       0.40199900       0.49087000
   103  C          0.16456000       0.09800100      -0.00913000
   104  C          0.33544000       0.59800100       0.50913000
   105  C          0.07414000       0.93347880       0.25573000
   106  C          0.42586000       0.43347880       0.24427000
   107  C          0.92586000       0.06652120       0.74427000
   108  C          0.57414000       0.56652120       0.75573000
   109  C         -0.01426000       0.89040890       0.14104000
   110  C          0.51426000       0.39040890       0.35896000
   111  C          0.01426000       0.10959110       0.85896000
   112  C          0.48574000       0.60959110       0.64104000
   113  C          0.33974000       0.09410140       0.66603000
   114  C          0.16026000       0.59410140       0.83397000
   115  C          0.66026000       0.90589860       0.33397000
   116  C          0.83974000       0.40589860       0.16603000
   117  C          0.42693000       0.13717120       0.78063000
   118  C          0.07307000       0.63717120       0.71937000
   119  C          0.57307000       0.86282880       0.21937000
   120  C          0.92693000       0.36282880       0.28063000
   121  C          0.40083000       0.03952130       0.68813000
   122  C          0.09917000       0.53952130       0.81187000
   123  C          0.59917000       0.96047870       0.31187000
   124  C          0.90083000       0.46047870       0.18813000
   125  H          0.06830000       0.01801000       0.31330000
   126  H          0.43170000       0.51801000       0.18670000
   127  H          0.93170000       0.98199000       0.68670000
   128  H          0.56830000       0.48199000       0.81330000
   129  H          0.63530000       0.15431000      -0.00570000
   130  H          0.86470000       0.65431000       0.50570000
   131  H          0.36470000       0.84569000       0.00570000
   132  H          0.13530000       0.34569000       0.49430000
   133  H          0.17940000       0.92438900       0.34130000
   134  H          0.32060000       0.42438900       0.15870000
   135  H          0.82060000       0.07561100       0.65870000
   136  H          0.67940000       0.57561100       0.84130000
   137  H          0.38340000       0.17381300       0.76330000
   138  H          0.11660000       0.67381300       0.73670000
   139  H          0.61660000       0.82618700       0.23670000
   140  H          0.88340000       0.32618700       0.26330000
   141  H          0.03230000       0.85258900       0.15530000
   142  H          0.46770000       0.35258900       0.34470000
   143  H          0.96770000       0.14741100       0.84470000
   144  H          0.53230000       0.64741100       0.65530000
   145  H          0.77240000       0.87238800       0.92630000
   146  H          0.72760000       0.37238800       0.57370000
   147  H          0.22760000       0.12761200       0.07370000
   148  H          0.27240000       0.62761200       0.42630000
   149  H          0.23840000       0.10381300       0.57540000
   150  H          0.26160000       0.60381300       0.92460000
   151  H          0.76160000       0.89618700       0.42460000
   152  H          0.73840000       0.39618700       0.07540000
   153  H          0.35140000       0.00951200       0.61340000
   154  H          0.14860000       0.50951200       0.88660000
   155  H          0.64860000       0.99048800       0.38660000
   156  H          0.85140000       0.49048800       0.11340000
