data_USALAC
_symmetry_space_group_name_H-M    'P1'
_symmetry_Int_Tables_number       1
loop_
_symmetry_equiv_pos_site_id
_symmetry_equiv_pos_as_xyz
1 x,y,z
_cell_length_a                   9.2696
_cell_length_b                   9.3227
_cell_length_c                   11.5918
_cell_angle_alpha                90.802
_cell_angle_beta                 104.902
_cell_angle_gamma                112.482
loop_
_atom_site_label
_atom_site_type_symbol
_atom_site_fract_x
_atom_site_fract_y
_atom_site_fract_z
     1  B          0.10021800       0.90941500       0.89428700
     2  B          0.89978200       0.09058500       0.10571300
     3  O          0.44831000       0.75451100       0.60529000
     4  O          0.55169000       0.24548900       0.39471000
     5  H          0.39250000       0.72710000       0.53510000
     6  H          0.60750000       0.27290000       0.46490000
     7  O          0.95552000       0.93259000       0.84853000
     8  O          0.04448000       0.06741000       0.15147000
     9  H          0.92810000       0.91750000       0.77480000
    10  H          0.07190000       0.08250000       0.22520000
    11  O          0.16901000       0.94081000       0.01158000
    12  O          0.83099000       0.05919000      -0.01158000
    13  H          0.11390000       0.96970000       0.04360000
    14  H          0.88610000       0.03030000       0.95640000
    15  C          0.17931400       0.85231300       0.81208900
    16  C          0.82068600       0.14768700       0.18791100
    17  C          0.11561400       0.80241400       0.68788800
    18  C          0.88438600       0.19758600       0.31211200
    19  H          0.00820000       0.78790000       0.65180000
    20  H         -0.00820000       0.21210000       0.34820000
    21  C          0.20081300       0.77351400       0.61578800
    22  C          0.79918700       0.22648600       0.38421200
    23  H          0.15650000       0.74970000       0.53270000
    24  H          0.84350000       0.25030000       0.46730000
    25  C          0.35961500       0.78131500       0.67308800
    26  C          0.64038500       0.21868500       0.32691200
    27  C          0.42301500       0.82951400       0.79178900
    28  C          0.57698500       0.17048600       0.20821100
    29  H          0.52960000       0.84210000       0.82840000
    30  H          0.47040000       0.15790000       0.17160000
    31  C          0.33691200       0.86061300       0.86028800
    32  C          0.66308800       0.13938700       0.13971200
    33  H          0.38510000       0.88850000       0.94270000
    34  H          0.61490000       0.11150000       0.05730000
    35  O          0.22239000       0.09211100       0.38262000
    36  O          0.77761000       0.90788900       0.61738000
    37  H          0.22180000       0.16280000       0.44030000
    38  H          0.77820000       0.83720000       0.55970000
    39  N          0.30481200       0.64021500       0.37781000
    40  N          0.69518800       0.35978500       0.62219000
    41  N          0.24361400       0.25311400       0.60229000
    42  N          0.75638600       0.74688600       0.39771000
    43  C          0.32621600       0.24711700       0.81238600
    44  C          0.67378400       0.75288300       0.18761400
    45  H          0.37580000       0.20310000       0.87350000
    46  H          0.62420000       0.79690000       0.12650000
    47  C          0.31661700       0.20271800       0.69868500
    48  C          0.68338300       0.79728200       0.30131500
    49  H          0.36300000       0.13340000       0.68640000
    50  H          0.63700000       0.86660000       0.31360000
    51  C          0.19471500       0.35881900       0.63298600
    52  C          0.80528500       0.64118100       0.36701400
    53  H          0.15520000       0.40620000       0.56950000
    54  H          0.84480000       0.59380000       0.43050000
    55  C          0.19231400       0.41151600       0.74488600
    56  C          0.80768600       0.58848400       0.25511400
    57  H          0.14460000       0.48080000       0.75430000
    58  H          0.85540000       0.51920000       0.24570000
    59  C          0.26891500       0.35161500       0.84528700
    60  C          0.73108500       0.64838500       0.15471300
    61  C          0.27701500       0.39771800       0.96778800
    62  C          0.72298500       0.60228200       0.03221200
    63  H          0.32460000       0.34780000       0.02490000
    64  H          0.67540000       0.65220000       0.97510000
    65  C          0.23311500       0.49011900       0.01071300
    66  C          0.76688500       0.50988100      -0.01071300
    67  H          0.18060000       0.53890000       0.95590000
    68  H          0.81940000       0.46110000       0.04410000
    69  C          0.25321400       0.53061500       0.13341100
    70  C          0.74678600       0.46938500       0.86658900
    71  C          0.30421400       0.45771300       0.22951200
    72  C          0.69578600       0.54228700       0.77048800
    73  H          0.32660000       0.37130000       0.21450000
    74  H          0.67340000       0.62870000       0.78550000
    75  C          0.32231500       0.50831700       0.34491300
    76  C          0.67768500       0.49168300       0.65508700
    77  H          0.34820000       0.44960000       0.40480000
    78  H          0.65180000       0.55040000       0.59520000
    79  C          0.25461700       0.71320000       0.28931500
    80  C          0.74538300       0.28680000       0.71068500
    81  H          0.23500000       0.80030000       0.30660000
    82  H          0.76500000       0.19970000       0.69340000
    83  C          0.23091500       0.66031800       0.17191400
    84  C          0.76908500       0.33968200       0.82808600
    85  H          0.19700000       0.71650000       0.11300000
    86  H          0.80300000       0.28350000       0.88700000
