data_USUQAD
_symmetry_space_group_name_H-M    'P1'
_symmetry_Int_Tables_number       1
loop_
_symmetry_equiv_pos_site_id
_symmetry_equiv_pos_as_xyz
1 x,y,z
_cell_length_a                   5.2945
_cell_length_b                   10.9405
_cell_length_c                   11.5765
_cell_angle_alpha                106.7575
_cell_angle_beta                 102.4865
_cell_angle_gamma                102.9555
loop_
_atom_site_label
_atom_site_type_symbol
_atom_site_fract_x
_atom_site_fract_y
_atom_site_fract_z
     1  Cl         0.15471170       0.32755900       0.00157900
     2  Cl         0.84528830       0.67244100      -0.00157900
     3  O          0.67745000       0.61592000       0.29472000
     4  O          0.32255000       0.38408000       0.70528000
     5  C          0.58516000       0.50483000       0.19693000
     6  C          0.41484000       0.49517000       0.80307000
     7  O          0.70764000       0.42712000       0.17062000
     8  O          0.29236000       0.57288000       0.82938000
     9  C          0.30697000       0.48893000       0.11834000
    10  C          0.69303000       0.51107000       0.88166000
    11  H          0.86770000       0.62630000       0.34930000
    12  H          0.13230000       0.37370000       0.65070000
    13  H          0.31660000       0.54930000       0.07230000
    14  H          0.68340000       0.45070000       0.92770000
    15  H          0.19660000       0.50630000       0.16930000
    16  H          0.80340000       0.49370000       0.83070000
    17  N          0.23285000       0.09513000       0.40172000
    18  N          0.76715000       0.90487000       0.59828000
    19  O          0.72464000       0.13962000       0.55852000
    20  O          0.27536000       0.86038000       0.44148000
    21  C          0.41506000       0.21583000       0.44213000
    22  C          0.58494000       0.78417000       0.55787000
    23  C         -0.01966000       0.06053000       0.31823000
    24  C          0.01966000       0.93947000       0.68177000
    25  C          0.90794000       0.15813000       0.27363000
    26  C          0.09206000       0.84187000       0.72637000
    27  O          0.84924000       0.35202000       0.57172000
    28  O          0.15076000       0.64798000       0.42828000
    29  C          0.68786000       0.23683000       0.53283000
    30  C          0.31214000       0.76317000       0.46717000
    31  C          0.79794000       0.93107000       0.27973000
    32  C          0.20206000       0.06893000       0.72027000
    33  C          0.64643000       0.12264000       0.18793000
    34  C          0.35357000       0.87736000       0.81207000
    35  C          0.34897000       0.31293000       0.39863000
    36  C          0.65103000       0.68707000       0.60137000
    37  C          0.09997000       0.28643000       0.31743000
    38  C          0.90003000       0.71357000       0.68257000
    39  C          0.54963000       0.90246000       0.19783000
    40  C          0.45037000       0.09754000       0.80217000
    41  C          0.47223000      -0.00334000       0.15103000
    42  C          0.52777000       0.00334000       0.84897000
    43  H          0.05160000       0.35230000       0.28830000
    44  H          0.94840000       0.64770000       0.71170000
    45  H          0.59350000       0.18930000       0.15920000
    46  H          0.40650000       0.81070000       0.84080000
    47  H          0.85640000       0.86670000       0.31230000
    48  H          0.14360000       0.13330000       0.68770000
    49  H          0.47650000       0.39230000       0.42720000
    50  H          0.52350000       0.60770000       0.57280000
    51  H          0.28750000       0.03930000       0.43130000
    52  H          0.71250000       0.96070000       0.56870000
    53  H          0.28640000       0.97870000       0.09430000
    54  H          0.71360000       0.02130000       0.90570000
    55  H          0.42940000       0.81770000       0.17430000
    56  H          0.57060000       0.18230000       0.82570000
