data_UTEJAG
_symmetry_space_group_name_H-M    'P1'
_symmetry_Int_Tables_number       1
loop_
_symmetry_equiv_pos_site_id
_symmetry_equiv_pos_as_xyz
1 x,y,z
_cell_length_a                   21.531919
_cell_length_b                   3.74063
_cell_length_c                   19.509018
_cell_angle_alpha                90.0
_cell_angle_beta                 122.5522
_cell_angle_gamma                90.0
loop_
_atom_site_label
_atom_site_type_symbol
_atom_site_fract_x
_atom_site_fract_y
_atom_site_fract_z
     1  O          0.61631700       0.92366000       0.49176800
     2  O          0.38368300       0.92366000       0.00823200
     3  O          0.11631700       0.42366000       0.49176800
     4  O          0.88368300       0.42366000       0.00823200
     5  O          0.38368300       0.07634000       0.50823200
     6  O          0.61631700       0.07634000      -0.00823200
     7  O          0.88368300       0.57634000       0.50823200
     8  O          0.11631700       0.57634000      -0.00823200
     9  H          0.63800000       0.95190000       0.46820000
    10  H          0.36200000       0.95190000       0.03180000
    11  H          0.13800000       0.45190000       0.46820000
    12  H          0.86200000       0.45190000       0.03180000
    13  H          0.36200000       0.04810000       0.53180000
    14  H          0.63800000       0.04810000       0.96820000
    15  H          0.86200000       0.54810000       0.53180000
    16  H          0.13800000       0.54810000       0.96820000
    17  N          0.54942800       0.05964000       0.44741900
    18  N          0.45057200       0.05964000       0.05258100
    19  N          0.04942800       0.55964000       0.44741900
    20  N          0.95057200       0.55964000       0.05258100
    21  N          0.45057200       0.94036000       0.55258100
    22  N          0.54942800       0.94036000       0.94741900
    23  N          0.95057200       0.44036000       0.55258100
    24  N          0.04942800       0.44036000       0.94741900
    25  N          0.43782900       0.22905000       0.40149100
    26  N          0.56217100       0.22905000       0.09850900
    27  N          0.93782900       0.72905000       0.40149100
    28  N          0.06217100       0.72905000       0.09850900
    29  N          0.56217100       0.77095000       0.59850900
    30  N          0.43782900       0.77095000       0.90149100
    31  N          0.06217100       0.27095000       0.59850900
    32  N          0.93782900       0.27095000       0.90149100
    33  C          0.49631100       0.07015000       0.46345110
    34  C          0.50368900       0.07015000       0.03654890
    35  C         -0.00368900       0.57015000       0.46345110
    36  C          0.00368900       0.57015000       0.03654890
    37  C          0.50368900       0.92985000       0.53654890
    38  C          0.49631100       0.92985000       0.96345110
    39  C          0.00368900       0.42985000       0.53654890
    40  C         -0.00368900       0.42985000       0.96345110
    41  N          0.52435900       0.21365000       0.37514100
    42  N          0.47564100       0.21365000       0.12485900
    43  N          0.02435900       0.71365000       0.37514100
    44  N          0.97564100       0.71365000       0.12485900
    45  N          0.47564100       0.78635000       0.62485900
    46  N          0.52435900       0.78635000       0.87514100
    47  N          0.97564100       0.28635000       0.62485900
    48  N          0.02435900       0.28635000       0.87514100
    49  N          0.45675900       0.31335000       0.34821100
    50  N          0.54324100       0.31335000       0.15178900
    51  N          0.95675900       0.81335000       0.34821100
    52  N          0.04324100       0.81335000       0.15178900
    53  N          0.54324100       0.68665000       0.65178900
    54  N          0.45675900       0.68665000       0.84821100
    55  N          0.04324100       0.18665000       0.65178900
    56  N          0.95675900       0.18665000       0.84821100
    57  N          0.16931900       0.37635000       0.40044100
    58  N          0.83068100       0.37635000       0.09955900
    59  N          0.66931900       0.87635000       0.40044100
    60  N          0.33068100       0.87635000       0.09955900
    61  N          0.83068100       0.62365000       0.59955900
    62  N          0.16931900       0.62365000       0.90044100
    63  N          0.33068100       0.12365000       0.59955900
    64  N          0.66931900       0.12365000       0.90044100
    65  N          0.24151800       0.46874000       0.36247900
    66  N          0.75848200       0.46874000       0.13752100
    67  N          0.74151800      -0.03126000       0.36247900
    68  N          0.25848200      -0.03126000       0.13752100
    69  N          0.75848200       0.53126000       0.63752100
    70  N          0.24151800       0.53126000       0.86247900
    71  N          0.25848200       0.03126000       0.63752100
    72  N          0.74151800       0.03126000       0.86247900
    73  N          0.23450900       0.51425000       0.42490900
    74  N          0.76549100       0.51425000       0.07509100
    75  N          0.73450900       0.01425000       0.42490900
    76  N          0.26549100       0.01425000       0.07509100
    77  N          0.76549100       0.48575000       0.57509100
    78  N          0.23450900       0.48575000       0.92490900
    79  N          0.26549100      -0.01425000       0.57509100
    80  N          0.73450900      -0.01425000       0.92490900
    81  N          0.30242900       0.60785000       0.36452100
    82  N          0.69757100       0.60785000       0.13547900
    83  N          0.80242900       0.10785000       0.36452100
    84  N          0.19757100       0.10785000       0.13547900
    85  N          0.69757100       0.39215000       0.63547900
    86  N          0.30242900       0.39215000       0.86452100
    87  N          0.19757100       0.89215000       0.63547900
    88  N          0.80242900       0.89215000       0.86452100
    89  H          0.32590000       0.76030000       0.40580000
    90  H          0.67410000       0.76030000       0.09420000
    91  H          0.82590000       0.26030000       0.40580000
    92  H          0.17410000       0.26030000       0.09420000
    93  H          0.67410000       0.23970000       0.59420000
    94  H          0.32590000       0.23970000       0.90580000
    95  H          0.17410000       0.73970000       0.59420000
    96  H          0.82590000       0.73970000       0.90580000
    97  H          0.33260000       0.43010000       0.37110000
    98  H          0.66740000       0.43010000       0.12890000
    99  H          0.83260000       0.93010000       0.37110000
   100  H          0.16740000       0.93010000       0.12890000
   101  H          0.66740000       0.56990000       0.62890000
   102  H          0.33260000       0.56990000       0.87110000
   103  H          0.16740000       0.06990000       0.62890000
   104  H          0.83260000       0.06990000       0.87110000
   105  C          0.13637120       0.24496000       0.32468130
   106  C          0.86362880       0.24496000       0.17531870
   107  C          0.63637120       0.74496000       0.32468130
   108  C          0.36362880       0.74496000       0.17531870
   109  C          0.86362880       0.75504000       0.67531870
   110  C          0.13637120       0.75504000       0.82468130
   111  C          0.36362880       0.25504000       0.67531870
   112  C          0.63637120       0.25504000       0.82468130
   113  H          0.09060000       0.13350000       0.29530000
   114  H          0.90940000       0.13350000       0.20470000
   115  H          0.59060000       0.63350000       0.29530000
   116  H          0.40940000       0.63350000       0.20470000
   117  H          0.90940000       0.86650000       0.70470000
   118  H          0.09060000       0.86650000       0.79530000
   119  H          0.40940000       0.36650000       0.70470000
   120  H          0.59060000       0.36650000       0.79530000
   121  C          0.18307110       0.30716000       0.29951120
   122  C          0.81692890       0.30716000       0.20048880
   123  C          0.68307110       0.80716000       0.29951120
   124  C          0.31692890       0.80716000       0.20048880
   125  C          0.81692890       0.69284000       0.70048880
   126  C          0.18307110       0.69284000       0.79951120
   127  C          0.31692890       0.19284000       0.70048880
   128  C          0.68307110       0.19284000       0.79951120
   129  H          0.17610000       0.24990000       0.24940000
   130  H          0.82390000       0.24990000       0.25060000
   131  H          0.67610000       0.74990000       0.24940000
   132  H          0.32390000       0.74990000       0.25060000
   133  H          0.82390000       0.75010000       0.75060000
   134  H          0.17610000       0.75010000       0.74940000
   135  H          0.32390000       0.25010000       0.75060000
   136  H          0.67610000       0.25010000       0.74940000
