data_UTUQEI
_symmetry_space_group_name_H-M    'P1'
_symmetry_Int_Tables_number       1
loop_
_symmetry_equiv_pos_site_id
_symmetry_equiv_pos_as_xyz
1 x,y,z
_cell_length_a                   6.89906
_cell_length_b                   9.00658
_cell_length_c                   10.53549
_cell_angle_alpha                67.0432
_cell_angle_beta                 74.813019
_cell_angle_gamma                69.9182
loop_
_atom_site_label
_atom_site_type_symbol
_atom_site_fract_x
_atom_site_fract_y
_atom_site_fract_z
     1  N          0.48726000       0.96575000       0.24235000
     2  N          0.51274000       0.03425000       0.75765000
     3  C          0.34527000       0.96226000       0.17995000
     4  C          0.65473000       0.03774000       0.82005000
     5  H          0.32740000       0.03960000       0.08880000
     6  H          0.67260000       0.96040000       0.91120000
     7  C          0.22167000       0.85186000       0.24024000
     8  C          0.77833000       0.14814000       0.75976000
     9  H          0.12280000       0.85410000       0.19100000
    10  H          0.87720000       0.14590000       0.80900000
    11  C          0.24396000       0.73805000       0.37364000
    12  C          0.75604000       0.26195000       0.62636000
    13  C          0.39428000       0.73987000       0.43935000
    14  C          0.60572000       0.26013000       0.56065000
    15  H          0.41610000       0.66380000       0.53030000
    16  H          0.58390000       0.33620000       0.46970000
    17  C          0.51167000       0.85527000       0.36926000
    18  C          0.48833000       0.14473000       0.63074000
    19  H          0.61430000       0.85480000       0.41430000
    20  H          0.38570000       0.14520000       0.58570000
    21  C          0.11906000       0.61835000       0.43974000
    22  C          0.88094000       0.38165000       0.56026000
    23  C          0.14246000       0.49616000       0.38234000
    24  C          0.85754000       0.50384000       0.61766000
    25  H          0.24050000       0.49410000       0.30030000
    26  H          0.75950000       0.50590000       0.69970000
    27  C          0.02946000       0.37655000       0.43874000
    28  C          0.97054000       0.62345000       0.56126000
    29  C          0.07427000       0.24126000       0.37725000
    30  C          0.92573000       0.75874000       0.62275000
    31  H          0.18160000       0.25790000       0.29500000
    32  H          0.81840000       0.74210000       0.70500000
    33  H          0.94640000       0.24570000       0.34990000
    34  H          0.05360000       0.75430000       0.65010000
    35  H          0.12380000       0.13160000       0.44640000
    36  H          0.87620000       0.86840000       0.55360000
    37  C          0.12587000       0.61246000       0.95175000
    38  C          0.87413000       0.38754000       0.04825000
    39  I          0.30213400       0.78752300       0.87177300
    40  I          0.69786600       0.21247700       0.12822700
    41  C          0.17416000       0.47976000       0.90295000
    42  C          0.82584000       0.52024000       0.09705000
    43  F          0.34285000       0.45524000       0.80713000
    44  F          0.65715000       0.54476000       0.19287000
    45  C          0.94914000       0.62876000       0.05035000
    46  C          0.05086000       0.37124000       0.94965000
    47  F          0.89226000       0.75624000       0.10143000
    48  F          0.10774000       0.24376000       0.89857000
