data_UTURAF
_symmetry_space_group_name_H-M    'P1'
_symmetry_Int_Tables_number       1
loop_
_symmetry_equiv_pos_site_id
_symmetry_equiv_pos_as_xyz
1 x,y,z
_cell_length_a                   5.51103
_cell_length_b                   18.589911
_cell_length_c                   23.742313
_cell_angle_alpha                90.0
_cell_angle_beta                 90.0
_cell_angle_gamma                90.0
loop_
_atom_site_label
_atom_site_type_symbol
_atom_site_fract_x
_atom_site_fract_y
_atom_site_fract_z
     1  N          0.31107000       0.23801160       0.39983140
     2  N          0.18893000       0.26198840       0.89983140
     3  N          0.68893000       0.23801160       0.10016860
     4  N          0.81107000       0.26198840       0.60016860
     5  N          0.68893000       0.76198840       0.60016860
     6  N          0.81107000       0.73801160       0.10016860
     7  N          0.31107000       0.76198840       0.89983140
     8  N          0.18893000       0.73801160       0.39983140
     9  C          0.42998000       0.26772000       0.44182000
    10  C          0.07002000       0.23228000       0.94182000
    11  C          0.57002000       0.26772000       0.05818000
    12  C          0.92998000       0.23228000       0.55818000
    13  C          0.57002000       0.73228000       0.55818000
    14  C          0.92998000       0.76772000       0.05818000
    15  C          0.42998000       0.73228000       0.94182000
    16  C          0.07002000       0.76772000       0.44182000
    17  H          0.57040000       0.24380000       0.45550000
    18  H          0.92960000       0.25620000       0.95550000
    19  H          0.42960000       0.24380000       0.04450000
    20  H          0.07040000       0.25620000       0.54450000
    21  H          0.42960000       0.75620000       0.54450000
    22  H          0.07040000       0.74380000       0.04450000
    23  H          0.57040000       0.75620000       0.95550000
    24  H          0.92960000       0.74380000       0.45550000
    25  C          0.36258000       0.33192000       0.46735190
    26  C          0.13742000       0.16808000       0.96735190
    27  C          0.63742000       0.33192000       0.03264810
    28  C          0.86258000       0.16808000       0.53264810
    29  C          0.63742000       0.66808000       0.53264810
    30  C          0.86258000       0.83192000       0.03264810
    31  C          0.36258000       0.66808000       0.96735190
    32  C          0.13742000       0.83192000       0.46735190
    33  H          0.45390000       0.35040000       0.49800000
    34  H          0.04610000       0.14960000      -0.00200000
    35  H          0.54610000       0.35040000       0.00200000
    36  H          0.95390000       0.14960000       0.50200000
    37  H          0.54610000       0.64960000       0.50200000
    38  H          0.95390000       0.85040000       0.00200000
    39  H          0.45390000       0.64960000      -0.00200000
    40  H          0.04610000       0.85040000       0.49800000
    41  C          0.16287000       0.36844160       0.44789140
    42  C          0.33713000       0.13155840       0.94789140
    43  C          0.83713000       0.36844160       0.05210860
    44  C          0.66287000       0.13155840       0.55210860
    45  C          0.83713000       0.63155840       0.55210860
    46  C          0.66287000       0.86844160       0.05210860
    47  C          0.16287000       0.63155840       0.94789140
    48  C          0.33713000       0.86844160       0.44789140
    49  C          0.03668000       0.33812000       0.40404180
    50  C          0.46332000       0.16188000       0.90404180
    51  C          0.96332000       0.33812000       0.09595820
    52  C          0.53668000       0.16188000       0.59595820
    53  C          0.96332000       0.66188000       0.59595820
    54  C          0.53668000       0.83812000       0.09595820
    55  C          0.03668000       0.66188000       0.90404180
    56  C          0.46332000       0.83812000       0.40404180
    57  H          0.89640000       0.36110000       0.38920000
    58  H          0.60360000       0.13890000       0.88920000
    59  H          0.10360000       0.36110000       0.11080000
    60  H          0.39640000       0.13890000       0.61080000
    61  H          0.10360000       0.63890000       0.61080000
    62  H          0.39640000       0.86110000       0.11080000
    63  H          0.89640000       0.63890000       0.88920000
    64  H          0.60360000       0.86110000       0.38920000
    65  C          0.11788000       0.27322000       0.38174190
    66  C          0.38212000       0.22678000       0.88174190
    67  C          0.88212000       0.27322000       0.11825810
    68  C          0.61788000       0.22678000       0.61825810
    69  C          0.88212000       0.72678000       0.61825810
    70  C          0.61788000       0.77322000       0.11825810
    71  C          0.11788000       0.72678000       0.88174190
    72  C          0.38212000       0.77322000       0.38174190
    73  H          0.02830000       0.25280000       0.35150000
    74  H          0.47170000       0.24720000       0.85150000
    75  H          0.97170000       0.25280000       0.14850000
    76  H          0.52830000       0.24720000       0.64850000
    77  H          0.97170000       0.74720000       0.64850000
    78  H          0.52830000       0.75280000       0.14850000
    79  H          0.02830000       0.74720000       0.85150000
    80  H          0.47170000       0.75280000       0.35150000
    81  C          0.08226000       0.43739160       0.47437130
    82  C          0.41774000       0.06260840       0.97437130
    83  C          0.91774000       0.43739160       0.02562870
    84  C          0.58226000       0.06260840       0.52562870
    85  C          0.91774000       0.56260840       0.52562870
    86  C          0.58226000       0.93739160       0.02562870
    87  C          0.08226000       0.56260840       0.97437130
    88  C          0.41774000       0.93739160       0.47437130
    89  C          0.17947000       0.50335170       0.45734150
    90  C          0.32053000      -0.00335170       0.95734150
    91  C          0.82053000       0.50335170       0.04265850
    92  C          0.67947000      -0.00335170       0.54265850
    93  C          0.82053000       0.49664830       0.54265850
    94  C          0.67947000       0.00335170       0.04265850
    95  C          0.17947000       0.49664830       0.95734150
    96  C          0.32053000       0.00335170       0.45734150
    97  C          0.37168000       0.50822000       0.41251170
    98  C          0.12832000       0.99178000       0.91251170
    99  C          0.62832000       0.50822000       0.08748830
   100  C          0.87168000       0.99178000       0.58748830
   101  C          0.62832000       0.49178000       0.58748830
   102  C          0.87168000       0.00822000       0.08748830
   103  C          0.37168000       0.49178000       0.91251170
   104  C          0.12832000       0.00822000       0.41251170
   105  H          0.40790000       0.55890000       0.40480000
   106  H          0.09210000       0.94110000       0.90480000
   107  H          0.59210000       0.55890000       0.09520000
   108  H          0.90790000       0.94110000       0.59520000
   109  H          0.59210000       0.44110000       0.59520000
   110  H          0.90790000       0.05890000       0.09520000
   111  H          0.40790000       0.44110000       0.90480000
   112  H          0.09210000       0.05890000       0.40480000
   113  H          0.31300000       0.48510000       0.37800000
   114  H          0.18700000       0.01490000       0.87800000
   115  H          0.68700000       0.48510000       0.12200000
   116  H          0.81300000       0.01490000       0.62200000
   117  H          0.68700000       0.51490000       0.62200000
   118  H          0.81300000       0.98510000       0.12200000
   119  H          0.31300000       0.51490000       0.87800000
   120  H          0.18700000       0.98510000       0.37800000
   121  H          0.51900000       0.48390000       0.42550000
   122  H         -0.01900000       0.01610000       0.92550000
   123  H          0.48100000       0.48390000       0.07450000
   124  H          0.01900000       0.01610000       0.57450000
   125  H          0.48100000       0.51610000       0.57450000
   126  H          0.01900000       0.98390000       0.07450000
   127  H          0.51900000       0.51610000       0.92550000
   128  H         -0.01900000       0.98390000       0.42550000
   129  C          0.90883000       0.43512160       0.51648140
   130  C          0.59117000       0.06487840       0.01648140
   131  C          0.09117000       0.43512160       0.98351860
   132  C          0.40883000       0.06487840       0.48351860
   133  C          0.09117000       0.56487840       0.48351860
   134  C          0.40883000       0.93512160       0.98351860
   135  C          0.90883000       0.56487840       0.01648140
   136  C          0.59117000       0.93512160       0.51648140
   137  H          0.84760000       0.38970000       0.52800000
   138  H          0.65240000       0.11030000       0.02800000
   139  H          0.15240000       0.38970000       0.97200000
   140  H          0.34760000       0.11030000       0.47200000
   141  H          0.15240000       0.61030000       0.47200000
   142  H          0.34760000       0.88970000       0.97200000
   143  H          0.84760000       0.61030000       0.02800000
   144  H          0.65240000       0.88970000       0.52800000
   145  C          0.00000000       0.96538000       0.25000000
   146  C          0.50000000       0.53462000       0.75000000
   147  C          0.00000000       0.03462000       0.75000000
   148  C          0.50000000       0.46538000       0.25000000
   149  I          0.00000000       0.85337081       0.25000000
   150  I          0.50000000       0.64662919       0.75000000
   151  I          0.00000000       0.14662919       0.75000000
   152  I          0.50000000       0.35337081       0.25000000
   153  C          0.83687000       0.00399180       0.28229150
   154  C          0.66313000       0.49600820       0.78229150
   155  C          0.16313000       0.00399180       0.21770850
   156  C          0.33687000       0.49600820       0.71770850
   157  C          0.16313000      -0.00399180       0.71770850
   158  C          0.33687000       0.50399180       0.21770850
   159  C          0.83687000      -0.00399180       0.78229150
   160  C          0.66313000       0.50399180       0.28229150
   161  F          0.67545000       0.96815880       0.31396100
   162  F          0.82455000       0.53184120       0.81396100
   163  F          0.32455000       0.96815880       0.18603900
   164  F          0.17545000       0.53184120       0.68603900
   165  F          0.32455000       0.03184120       0.68603900
   166  F          0.17545000       0.46815880       0.18603900
   167  F          0.67545000       0.03184120       0.81396100
   168  F          0.82455000       0.46815880       0.31396100
   169  C          0.83346000       0.07863170       0.28372140
   170  C          0.66654000       0.42136830       0.78372140
   171  C          0.16654000       0.07863170       0.21627860
   172  C          0.33346000       0.42136830       0.71627860
   173  C          0.16654000       0.92136830       0.71627860
   174  C          0.33346000       0.57863170       0.21627860
   175  C          0.83346000       0.92136830       0.78372140
   176  C          0.66654000       0.57863170       0.28372140
   177  I          0.59323500       0.13759912       0.33433310
   178  I          0.90676500       0.36240088       0.83433310
   179  I          0.40676500       0.13759912       0.16566690
   180  I          0.09323500       0.36240088       0.66566690
   181  I          0.40676500       0.86240088       0.66566690
   182  I          0.09323500       0.63759912       0.16566690
   183  I          0.59323500       0.86240088       0.83433310
   184  I          0.90676500       0.63759912       0.33433310
   185  C          0.00000000       0.11332000       0.25000000
   186  C          0.50000000       0.38668000       0.75000000
   187  C          0.00000000       0.88668000       0.75000000
   188  C          0.50000000       0.61332000       0.25000000
   189  F          0.00000000       0.18584130       0.25000000
   190  F          0.50000000       0.31415870       0.75000000
   191  F          0.00000000       0.81415870       0.75000000
   192  F          0.50000000       0.68584130       0.25000000
