data_UTUVEN
_symmetry_space_group_name_H-M    'P1'
_symmetry_Int_Tables_number       1
loop_
_symmetry_equiv_pos_site_id
_symmetry_equiv_pos_as_xyz
1 x,y,z
_cell_length_a                   19.81518
_cell_length_b                   15.28046
_cell_length_c                   8.39504
_cell_angle_alpha                90.0
_cell_angle_beta                 94.09901
_cell_angle_gamma                90.0
loop_
_atom_site_label
_atom_site_type_symbol
_atom_site_fract_x
_atom_site_fract_y
_atom_site_fract_z
     1  S          0.27906500       0.31399700      -0.01380890
     2  S          0.27906500       0.68600300       0.48619110
     3  S          0.77906500       0.81399700      -0.01380890
     4  S          0.77906500       0.18600300       0.48619110
     5  N          0.26552180       0.23672000       0.69754000
     6  N          0.26552180       0.76328000       0.19754000
     7  N          0.76552180       0.73672000       0.69754000
     8  N          0.76552180       0.26328000       0.19754000
     9  N          0.36407160       0.31452000       0.77924000
    10  N          0.36407160       0.68548000       0.27924000
    11  N          0.86407160       0.81452000       0.77924000
    12  N          0.86407160       0.18548000       0.27924000
    13  H          0.38391000       0.30536900       0.69296500
    14  H          0.38391000       0.69463100       0.19296500
    15  H          0.88391000       0.80536900       0.69296500
    16  H          0.88391000       0.19463100       0.19296500
    17  C          0.30291190       0.28372000       0.80144000
    18  C          0.30291190       0.71628000       0.30144000
    19  C          0.80291190       0.78372000       0.80144000
    20  C          0.80291190       0.21628000       0.30144000
    21  C          0.35592000       0.36933000       0.02735000
    22  C          0.35592000       0.63067000       0.52735000
    23  C          0.85592000       0.86933000       0.02735000
    24  C          0.85592000       0.13067000       0.52735000
    25  C          0.39332000       0.36223000       0.90445000
    26  C          0.39332000       0.63777000       0.40445000
    27  C          0.89332000       0.86223000       0.90445000
    28  C          0.89332000       0.13777000       0.40445000
    29  H          0.43598200       0.38744500       0.90261400
    30  H          0.43598200       0.61255500       0.40261400
    31  H          0.93598200       0.88744500       0.90261400
    32  H          0.93598200       0.11255500       0.40261400
    33  C          0.37163000       0.41574000       0.18316000
    34  C          0.37163000       0.58426000       0.68316000
    35  C          0.87163000       0.91574000       0.18316000
    36  C          0.87163000       0.08426000       0.68316000
    37  H          0.33532900       0.45495400       0.20266200
    38  H          0.33532900       0.54504600       0.70266200
    39  H          0.83532900       0.95495400       0.20266200
    40  H          0.83532900       0.04504600       0.70266200
    41  H          0.41287100       0.44828800       0.17837100
    42  H          0.41287100       0.55171200       0.67837100
    43  H          0.91287100       0.94828800       0.17837100
    44  H          0.91287100       0.05171200       0.67837100
    45  H          0.37677400       0.37353700       0.26786800
    46  H          0.37677400       0.62646300       0.76786800
    47  H          0.87677400       0.87353700       0.26786800
    48  H          0.87677400       0.12646300       0.76786800
    49  H          0.28420000       0.22530000       0.61360000
    50  H          0.28420000       0.77470000       0.11360000
    51  H          0.78420000       0.72530000       0.61360000
    52  H          0.78420000       0.27470000       0.11360000
    53  O          0.36607120       0.15397180       0.24633000
    54  O          0.36607120       0.84602820       0.74633000
    55  O          0.86607120       0.65397180       0.24633000
    56  O          0.86607120       0.34602820       0.74633000
    57  O          0.63970120       0.29686140       0.32763000
    58  O          0.63970120       0.70313860       0.82763000
    59  O          0.13970120       0.79686140       0.32763000
    60  O          0.13970120       0.20313860       0.82763000
    61  H          0.67972500       0.31073200       0.33909500
    62  H          0.67972500       0.68926800       0.83909500
    63  H          0.17972500       0.81073200       0.33909500
    64  H          0.17972500       0.18926800       0.83909500
    65  O          0.56537120       0.19483170       0.17043000
    66  O          0.56537120       0.80516830       0.67043000
    67  O          0.06537120       0.69483170       0.17043000
    68  O          0.06537120       0.30516830       0.67043000
    69  H          0.58475100       0.22683100       0.23739300
    70  H          0.58475100       0.77316900       0.73739300
    71  H          0.08475100       0.72683100       0.23739300
    72  H          0.08475100       0.27316900       0.73739300
    73  O          0.52437140       0.48828160       0.51863000
    74  O          0.52437140       0.51171840       0.01863000
    75  O          0.02437140       0.98828160       0.51863000
    76  O          0.02437140       0.01171840       0.01863000
    77  O          0.37670130       0.20912000       0.48633000
    78  O          0.37670130       0.79088000      -0.01367000
    79  O          0.87670130       0.70912000       0.48633000
    80  O          0.87670130       0.29088000      -0.01367000
    81  O          0.44916160       0.39233180       0.58124000
    82  O          0.44916160       0.60766820       0.08124000
    83  O          0.94916160       0.89233180       0.58124000
    84  O          0.94916160       0.10766820       0.08124000
    85  N          0.72085160       0.16780190       0.85394000
    86  N          0.72085160       0.83219810       0.35394000
    87  N          0.22085160       0.66780190       0.85394000
    88  N          0.22085160       0.33219810       0.35394000
    89  H          0.74260800       0.21617100       0.86841200
    90  H          0.74260800       0.78382900       0.36841200
    91  H          0.24260800       0.71617100       0.86841200
    92  H          0.24260800       0.28382900       0.36841200
    93  N          0.70639160       0.02042000       0.82694000
    94  N          0.70639160       0.97958000       0.32694000
    95  N          0.20639160       0.52042000       0.82694000
    96  N          0.20639160       0.47958000       0.32694000
    97  H          0.71804000       0.96632700       0.82260900
    98  H          0.71804000       0.03367300       0.32260900
    99  H          0.21804000       0.46632700       0.82260900
   100  H          0.21804000       0.53367300       0.32260900
   101  C          0.39176170       0.13042000       0.10554000
   102  C          0.39176170       0.86958000       0.60554000
   103  C          0.89176170       0.63042000       0.10554000
   104  C          0.89176170       0.36958000       0.60554000
   105  C          0.45849170       0.14512000       0.07684000
   106  C          0.45849170       0.85488000       0.57684000
   107  C          0.95849170       0.64512000       0.07684000
   108  C          0.95849170       0.35488000       0.57684000
   109  C          0.54459160       0.33502000       0.46444000
   110  C          0.54459160       0.66498000       0.96444000
   111  C          0.04459160       0.83502000       0.46444000
   112  C          0.04459160       0.16498000       0.96444000
   113  C          0.50313190       0.40192000       0.52424000
   114  C          0.50313190       0.59808000       0.02424000
   115  C          0.00313190       0.90192000       0.52424000
   116  C          0.00313190       0.09808000       0.02424000
   117  C          0.47682170       0.20472000       0.34604000
   118  C          0.47682170       0.79528000       0.84604000
   119  C          0.97682170       0.70472000       0.34604000
   120  C          0.97682170       0.29528000       0.84604000
   121  C          0.58514180       0.50942000       0.46174000
   122  C          0.58514180       0.49058000       0.96174000
   123  C          0.08514180       0.00942000       0.46174000
   124  C          0.08514180       0.99058000       0.96174000
   125  C          0.56526190       0.08852000       0.54444000
   126  C          0.56526190       0.91148000       0.04444000
   127  C          0.06526190       0.58852000       0.54444000
   128  C          0.06526190       0.41148000       0.04444000
   129  H          0.53132200       0.06727000       0.47236700
   130  H          0.53132200       0.93273000       0.97236700
   131  H          0.03132200       0.56727000       0.47236700
   132  H          0.03132200       0.43273000       0.97236700
   133  C          0.51942160       0.24182000       0.48884000
   134  C          0.51942160       0.75818000      -0.01116000
   135  C          0.01942160       0.74182000       0.48884000
   136  C          0.01942160       0.25818000      -0.01116000
   137  H          0.48720300       0.24805100       0.57138500
   138  H          0.48720300       0.75194900       0.07138500
   139  H          0.98720300       0.74805100       0.57138500
   140  H          0.98720300       0.25194900       0.07138500
   141  C          0.62546170       0.44732000       0.39634000
   142  C          0.62546170       0.55268000       0.89634000
   143  C          0.12546170       0.94732000       0.39634000
   144  C          0.12546170       0.05268000       0.89634000
   145  C          0.34678190       0.09073000      -0.00665000
   146  C          0.34678190       0.90927000       0.49335000
   147  C          0.84678190       0.59073000      -0.00665000
   148  C          0.84678190       0.40927000       0.49335000
   149  H          0.30213200       0.08050300       0.01551600
   150  H          0.30213200       0.91949700       0.51551600
   151  H          0.80213200       0.58050300       0.01551600
   152  H          0.80213200       0.41949700       0.51551600
   153  C          0.50230160       0.18442000       0.20374000
   154  C          0.50230160       0.81558000       0.70374000
   155  C          0.00230160       0.68442000       0.20374000
   156  C          0.00230160       0.31558000       0.70374000
   157  C          0.60342160       0.35532000       0.39334000
   158  C          0.60342160       0.64468000       0.89334000
   159  C          0.10342160       0.85532000       0.39334000
   160  C          0.10342160       0.14468000       0.89334000
   161  C          0.40603170       0.19142000       0.36854000
   162  C          0.40603170       0.80858000       0.86854000
   163  C          0.90603170       0.69142000       0.36854000
   164  C          0.90603170       0.30858000       0.86854000
   165  C          0.66482190       0.15153000       0.74954000
   166  C          0.66482190       0.84847000       0.24954000
   167  C          0.16482190       0.65153000       0.74954000
   168  C          0.16482190       0.34847000       0.24954000
   169  C          0.65627190       0.06313000       0.73285000
   170  C          0.65627190       0.93687000       0.23285000
   171  C          0.15627190       0.56313000       0.73285000
   172  C          0.15627190       0.43687000       0.23285000
   173  C          0.57263170       0.17802000       0.56254000
   174  C          0.57263170       0.82198000       0.06254000
   175  C          0.07263170       0.67802000       0.56254000
   176  C          0.07263170       0.32198000       0.06254000
   177  C          0.62438190       0.21072000       0.66734000
   178  C          0.62438190       0.78928000       0.16734000
   179  C          0.12438190       0.71072000       0.66734000
   180  C          0.12438190       0.28928000       0.16734000
   181  H          0.63103500       0.27056700       0.68049200
   182  H          0.63103500       0.72943300       0.18049200
   183  H          0.13103500       0.77056700       0.68049200
   184  H          0.13103500       0.22943300       0.18049200
   185  C          0.36982000       0.06663000       0.84845000
   186  C          0.36982000       0.93337000       0.34845000
   187  C          0.86982000       0.56663000       0.84845000
   188  C          0.86982000       0.43337000       0.34845000
   189  H          0.34046700       0.03958900       0.77222300
   190  H          0.34046700       0.96041100       0.27222300
   191  H          0.84046700       0.53958900       0.77222300
   192  H          0.84046700       0.46041100       0.27222300
   193  C          0.60712000       0.02892000       0.63075000
   194  C          0.60712000       0.97108000       0.13075000
   195  C          0.10712000       0.52892000       0.63075000
   196  C          0.10712000       0.47108000       0.13075000
   197  H          0.60154900       0.96873200       0.61860800
   198  H          0.60154900       0.03126800       0.11860800
   199  H          0.10154900       0.46873200       0.61860800
   200  H          0.10154900       0.53126800       0.11860800
   201  C          0.68581180       0.47462000       0.33805000
   202  C          0.68581180       0.52538000       0.83805000
   203  C          0.18581180       0.97462000       0.33805000
   204  C          0.18581180       0.02538000       0.83805000
   205  H          0.71292200       0.43421300       0.28973400
   206  H          0.71292200       0.56578700       0.78973400
   207  H          0.21292200       0.93421300       0.28973400
   208  H          0.21292200       0.06578700       0.78973400
   209  C          0.60352000       0.59692000       0.47385000
   210  C          0.60352000       0.40308000       0.97385000
   211  C          0.10352000       0.09692000       0.47385000
   212  C          0.10352000       0.90308000       0.97385000
   213  H          0.57520200       0.63787100       0.51679800
   214  H          0.57520200       0.36212900       0.01679800
   215  H          0.07520200       0.13787100       0.51679800
   216  H          0.07520200       0.86212900       0.01679800
   217  C          0.43632000       0.08233000       0.81546000
   218  C          0.43632000       0.91767000       0.31546000
   219  C          0.93632000       0.58233000       0.81546000
   220  C          0.93632000       0.41767000       0.31546000
   221  H          0.45111100       0.06671600       0.71681600
   222  H          0.45111100       0.93328400       0.21681600
   223  H          0.95111100       0.56671600       0.71681600
   224  H          0.95111100       0.43328400       0.21681600
   225  C          0.48052000       0.12103000       0.92846000
   226  C          0.48052000       0.87897000       0.42846000
   227  C          0.98052000       0.62103000       0.92846000
   228  C          0.98052000       0.37897000       0.42846000
   229  H          0.52509300       0.13116900       0.90606200
   230  H          0.52509300       0.86883100       0.40606200
   231  H          0.02509300       0.63116900       0.90606200
   232  H          0.02509300       0.36883100       0.40606200
   233  C          0.66482000       0.62123000       0.42025000
   234  C          0.66482000       0.37877000       0.92025000
   235  C          0.16482000       0.12123000       0.42025000
   236  C          0.16482000       0.87877000       0.92025000
   237  H          0.67891200       0.67913300       0.43072000
   238  H          0.67891200       0.32086700       0.93072000
   239  H          0.17891200       0.17913300       0.43072000
   240  H          0.17891200       0.82086700       0.93072000
   241  C          0.73413000       0.08603000       0.93176000
   242  C          0.73413000       0.91397000       0.43176000
   243  C          0.23413000       0.58603000       0.93176000
   244  C          0.23413000       0.41397000       0.43176000
   245  H          0.78245800       0.07741500       0.95237400
   246  H          0.78245800       0.92258500       0.45237400
   247  H          0.28245800       0.57741500       0.95237400
   248  H          0.28245800       0.42258500       0.45237400
   249  H          0.71312100       0.08416900       0.03249300
   250  H          0.71312100       0.91583100       0.53249300
   251  H          0.21312100       0.58416900       0.03249300
   252  H          0.21312100       0.41583100       0.53249300
   253  C          0.70612000       0.56073000       0.35055000
   254  C          0.70612000       0.43927000       0.85055000
   255  C          0.20612000       0.06073000       0.35055000
   256  C          0.20612000       0.93927000       0.85055000
   257  H          0.74698900       0.57814200       0.31270700
   258  H          0.74698900       0.42185800       0.81270700
   259  H          0.24698900       0.07814200       0.31270700
   260  H          0.24698900       0.92185800       0.81270700
