data_UVETIA
_symmetry_space_group_name_H-M    'P1'
_symmetry_Int_Tables_number       1
loop_
_symmetry_equiv_pos_site_id
_symmetry_equiv_pos_as_xyz
1 x,y,z
_cell_length_a                   13.5384
_cell_length_b                   5.123018
_cell_length_c                   30.1671
_cell_angle_alpha                90.0
_cell_angle_beta                 95.9689
_cell_angle_gamma                90.0
loop_
_atom_site_label
_atom_site_type_symbol
_atom_site_fract_x
_atom_site_fract_y
_atom_site_fract_z
     1  N          0.35442000      -0.02174000       0.54889100
     2  N          0.64558000      -0.02174000       0.95110900
     3  N          0.85442000       0.47826000       0.54889100
     4  N          0.14558000       0.47826000       0.95110900
     5  N          0.64558000       0.02174000       0.45110900
     6  N          0.35442000       0.02174000       0.04889100
     7  N          0.14558000       0.52174000       0.45110900
     8  N          0.85442000       0.52174000       0.04889100
     9  C          0.46962000       0.60007000       0.51024110
    10  C          0.53038000       0.60007000       0.98975890
    11  C          0.96962000       0.10007000       0.51024110
    12  C          0.03038000       0.10007000       0.98975890
    13  C          0.53038000       0.39993000       0.48975890
    14  C          0.46962000       0.39993000       0.01024110
    15  C          0.03038000       0.89993000       0.48975890
    16  C          0.96962000       0.89993000       0.01024110
    17  C          0.47763000       0.64158000       0.55606120
    18  C          0.52237000       0.64158000       0.94393880
    19  C          0.97763000       0.14158000       0.55606120
    20  C          0.02237000       0.14158000       0.94393880
    21  C          0.52237000       0.35842000       0.44393880
    22  C          0.47763000       0.35842000       0.05606120
    23  C          0.02237000       0.85842000       0.44393880
    24  C          0.97763000       0.85842000       0.05606120
    25  H          0.52270000       0.54010000       0.57520000
    26  H          0.47730000       0.54010000       0.92480000
    27  H          0.02270000       0.04010000       0.57520000
    28  H          0.97730000       0.04010000       0.92480000
    29  H          0.47730000       0.45990000       0.42480000
    30  H          0.52270000       0.45990000       0.07520000
    31  H          0.97730000       0.95990000       0.42480000
    32  H          0.02270000       0.95990000       0.07520000
    33  C          0.42003000       0.83048000       0.57370110
    34  C          0.57997000       0.83048000       0.92629890
    35  C          0.92003000       0.33048000       0.57370110
    36  C          0.07997000       0.33048000       0.92629890
    37  C          0.57997000       0.16952000       0.42629890
    38  C          0.42003000       0.16952000       0.07370110
    39  C          0.07997000       0.66952000       0.42629890
    40  C          0.92003000       0.66952000       0.07370110
    41  H          0.42750000       0.85630000       0.60510000
    42  H          0.57250000       0.85630000       0.89490000
    43  H          0.92750000       0.35630000       0.60510000
    44  H          0.07250000       0.35630000       0.89490000
    45  H          0.57250000       0.14370000       0.39490000
    46  H          0.42750000       0.14370000       0.10510000
    47  H          0.07250000       0.64370000       0.39490000
    48  H          0.92750000       0.64370000       0.10510000
    49  C          0.34683000       0.94218000       0.50506120
    50  C          0.65317000       0.94218000       0.99493880
    51  C          0.84683000       0.44218000       0.50506120
    52  C          0.15317000       0.44218000       0.99493880
    53  C          0.65317000       0.05782000       0.49493880
    54  C          0.34683000       0.05782000       0.00506120
    55  C          0.15317000       0.55782000       0.49493880
    56  C          0.84683000       0.55782000       0.00506120
    57  H          0.30160000       0.04810000       0.48680000
    58  H          0.69840000       0.04810000       0.01320000
    59  H          0.80160000       0.54810000       0.48680000
    60  H          0.19840000       0.54810000       0.01320000
    61  H          0.69840000       0.95190000       0.51320000
    62  H          0.30160000       0.95190000       0.98680000
    63  H          0.19840000       0.45190000       0.51320000
    64  H          0.80160000       0.45190000       0.98680000
    65  C          0.40173000       0.75717000       0.48451120
    66  C          0.59827000       0.75717000       0.01548880
    67  C          0.90173000       0.25717000       0.48451120
    68  C          0.09827000       0.25717000       0.01548880
    69  C          0.59827000       0.24283000       0.51548880
    70  C          0.40173000       0.24283000       0.98451120
    71  C          0.09827000       0.74283000       0.51548880
    72  C          0.90173000       0.74283000       0.98451120
    73  H          0.39310000       0.73770000       0.45300000
    74  H          0.60690000       0.73770000       0.04700000
    75  H          0.89310000       0.23770000       0.45300000
    76  H          0.10690000       0.23770000       0.04700000
    77  H          0.60690000       0.26230000       0.54700000
    78  H          0.39310000       0.26230000       0.95300000
    79  H          0.10690000       0.76230000       0.54700000
    80  H          0.89310000       0.76230000       0.95300000
    81  S          0.12214600       0.61122000       0.64475300
    82  S          0.87785400       0.61122000       0.85524700
    83  S          0.62214600       0.11122000       0.64475300
    84  S          0.37785400       0.11122000       0.85524700
    85  S          0.87785400       0.38878000       0.35524700
    86  S          0.12214600       0.38878000       0.14475300
    87  S          0.37785400       0.88878000       0.35524700
    88  S          0.62214600       0.88878000       0.14475300
    89  Cl         0.40721600       0.80012000       0.70764300
    90  Cl         0.59278400       0.80012000       0.79235700
    91  Cl         0.90721600       0.30012000       0.70764300
    92  Cl         0.09278400       0.30012000       0.79235700
    93  Cl         0.59278400       0.19988000       0.29235700
    94  Cl         0.40721600       0.19988000       0.20764300
    95  Cl         0.09278400       0.69988000       0.29235700
    96  Cl         0.90721600       0.69988000       0.20764300
    97  O          0.24836190       0.29186000       0.59585900
    98  O          0.75163810       0.29186000       0.90414100
    99  O          0.74836190       0.79186000       0.59585900
   100  O          0.25163810       0.79186000       0.90414100
   101  O          0.75163810       0.70814000       0.40414100
   102  O          0.24836190       0.70814000       0.09585900
   103  O          0.25163810       0.20814000       0.40414100
   104  O          0.74836190       0.20814000       0.09585900
   105  O          0.39160180       0.33975000       0.63983800
   106  O          0.60839820       0.33975000       0.86016200
   107  O          0.89160180       0.83975000       0.63983800
   108  O          0.10839820       0.83975000       0.86016200
   109  O          0.60839820       0.66025000       0.36016200
   110  O          0.39160180       0.66025000       0.13983800
   111  O          0.10839820       0.16025000       0.36016200
   112  O          0.89160180       0.16025000       0.13983800
   113  C          0.24982000       0.58417000       0.65494110
   114  C          0.75018000       0.58417000       0.84505890
   115  C          0.74982000       0.08417000       0.65494110
   116  C          0.25018000       0.08417000       0.84505890
   117  C          0.75018000       0.41583000       0.34505890
   118  C          0.24982000       0.41583000       0.15494110
   119  C          0.25018000       0.91583000       0.34505890
   120  C          0.74982000       0.91583000       0.15494110
   121  C          0.11773000       0.85268000       0.68316120
   122  C          0.88227000       0.85268000       0.81683880
   123  C          0.61773000       0.35268000       0.68316120
   124  C          0.38227000       0.35268000       0.81683880
   125  C          0.88227000       0.14732000       0.31683880
   126  C          0.11773000       0.14732000       0.18316120
   127  C          0.38227000       0.64732000       0.31683880
   128  C          0.61773000       0.64732000       0.18316120
   129  H          0.05790000       0.93410000       0.68990000
   130  H          0.94210000       0.93410000       0.81010000
   131  H          0.55790000       0.43410000       0.68990000
   132  H          0.44210000       0.43410000       0.81010000
   133  H          0.94210000       0.06590000       0.31010000
   134  H          0.05790000       0.06590000       0.18990000
   135  H          0.44210000       0.56590000       0.31010000
   136  H          0.55790000       0.56590000       0.18990000
   137  C          0.20913000       0.91608000       0.70321120
   138  C          0.79087000       0.91608000       0.79678880
   139  C          0.70913000       0.41608000       0.70321120
   140  C          0.29087000       0.41608000       0.79678880
   141  C          0.79087000       0.08392000       0.29678880
   142  C          0.20913000       0.08392000       0.20321120
   143  C          0.29087000       0.58392000       0.29678880
   144  C          0.70913000       0.58392000       0.20321120
   145  H          0.22100000       0.04820000       0.72520000
   146  H          0.77900000       0.04820000       0.77480000
   147  H          0.72100000       0.54820000       0.72520000
   148  H          0.27900000       0.54820000       0.77480000
   149  H          0.77900000       0.95180000       0.27480000
   150  H          0.22100000       0.95180000       0.22520000
   151  H          0.27900000       0.45180000       0.27480000
   152  H          0.72100000       0.45180000       0.22520000
   153  C          0.28462000       0.76027000       0.68722100
   154  C          0.71538000       0.76027000       0.81277900
   155  C          0.78462000       0.26027000       0.68722100
   156  C          0.21538000       0.26027000       0.81277900
   157  C          0.71538000       0.23973000       0.31277900
   158  C          0.28462000       0.23973000       0.18722100
   159  C          0.21538000       0.73973000       0.31277900
   160  C          0.78462000       0.73973000       0.18722100
   161  C          0.30433000       0.39367000       0.63023110
   162  C          0.69567000       0.39367000       0.86976890
   163  C          0.80433000       0.89367000       0.63023110
   164  C          0.19567000       0.89367000       0.86976890
   165  C          0.69567000       0.60633000       0.36976890
   166  C          0.30433000       0.60633000       0.13023110
   167  C          0.19567000       0.10633000       0.36976890
   168  C          0.80433000       0.10633000       0.13023110
   169  H          0.28340000       0.18410000       0.58001600
   170  H          0.71660000       0.18410000       0.91998400
   171  H          0.78340000       0.68410000       0.58001600
   172  H          0.21660000       0.68410000       0.91998400
   173  H          0.71660000       0.81590000       0.41998400
   174  H          0.28340000       0.81590000       0.08001600
   175  H          0.21660000       0.31590000       0.41998400
   176  H          0.78340000       0.31590000       0.08001600
