data_UVIMES
_symmetry_space_group_name_H-M    'P1'
_symmetry_Int_Tables_number       1
loop_
_symmetry_equiv_pos_site_id
_symmetry_equiv_pos_as_xyz
1 x,y,z
_cell_length_a                   9.82322
_cell_length_b                   13.26443
_cell_length_c                   11.25463
_cell_angle_alpha                90.0
_cell_angle_beta                 112.69201
_cell_angle_gamma                90.0
loop_
_atom_site_label
_atom_site_type_symbol
_atom_site_fract_x
_atom_site_fract_y
_atom_site_fract_z
     1  C          0.42137140       0.15153110       0.27628130
     2  C          0.57862860       0.65153110       0.22371870
     3  C          0.57862860       0.84846890       0.72371870
     4  C          0.42137140       0.34846890       0.77628130
     5  H          0.45260000       0.20570000       0.23760000
     6  H          0.54740000       0.70570000       0.26240000
     7  H          0.54740000       0.79430000       0.76240000
     8  H          0.45260000       0.29430000       0.73760000
     9  C          0.32252120       0.06847900       0.38521110
    10  C          0.67747880       0.56847900       0.11478890
    11  C          0.67747880       0.93152100       0.61478890
    12  C          0.32252120       0.43152100       0.88521110
    13  C          0.23818140       0.94020890       0.48703130
    14  C          0.76181860       0.44020890       0.01296870
    15  C          0.76181860       0.05979110       0.51296870
    16  C          0.23818140       0.55979110      -0.01296870
    17  C          0.37828140       0.89365900       0.35066130
    18  C          0.62171860       0.39365900       0.14933870
    19  C          0.62171860       0.10634100       0.64933870
    20  C          0.37828140       0.60634100       0.85066130
    21  C          0.38528130      -0.00065900       0.33136110
    22  C          0.61471870       0.49934100       0.16863890
    23  C          0.61471870       0.00065900       0.66863890
    24  C          0.38528130       0.50065900       0.83136110
    25  C          0.17674160       0.11765120       0.51114150
    26  C          0.82325840       0.61765120      -0.01114150
    27  C          0.82325840       0.88234880       0.48885850
    28  C          0.17674160       0.38234880       0.01114150
    29  H          0.25050000       0.16410000       0.56840000
    30  H          0.74950000       0.66410000       0.93160000
    31  H          0.74950000       0.83590000       0.43160000
    32  H          0.25050000       0.33590000       0.06840000
    33  H          0.12440000       0.08440000       0.55890000
    34  H          0.87560000       0.58440000       0.94110000
    35  H          0.87560000       0.91560000       0.44110000
    36  H          0.12440000       0.41560000       0.05890000
    37  H          0.10610000       0.15530000       0.43860000
    38  H          0.89390000       0.65530000       0.06140000
    39  H          0.89390000       0.84470000       0.56140000
    40  H          0.10610000       0.34470000       0.93860000
    41  C          0.27852000       0.76370880       0.44922000
    42  C          0.72148000       0.26370880       0.05078000
    43  C          0.72148000       0.23629120       0.55078000
    44  C          0.27852000       0.73629120       0.94922000
    45  H          0.23450000       0.72960000       0.36570000
    46  H          0.76550000       0.22960000       0.13430000
    47  H          0.76550000       0.27040000       0.63430000
    48  H          0.23450000       0.77040000       0.86570000
    49  H          0.21230000       0.75760000       0.49530000
    50  H          0.78770000       0.25760000       0.00470000
    51  H          0.78770000       0.24240000       0.50470000
    52  H          0.21230000       0.74240000      -0.00470000
    53  H          0.37360000       0.73250000       0.50010000
    54  H          0.62640000       0.23250000      -0.00010000
    55  H          0.62640000       0.26750000       0.49990000
    56  H          0.37360000       0.76750000       0.00010000
    57  C          0.53057180       0.01663150       0.18643150
    58  C          0.46942820       0.51663150       0.31356850
    59  C          0.46942820       0.98336850       0.81356850
    60  C          0.53057180       0.48336850       0.68643150
    61  H          0.52180000       0.06440000       0.11740000
    62  H          0.47820000       0.56440000       0.38260000
    63  H          0.47820000       0.93560000       0.88260000
    64  H          0.52180000       0.43560000       0.61740000
    65  H          0.49030000       0.95120000       0.14880000
    66  H          0.50970000       0.45120000       0.35120000
    67  H          0.50970000       0.04880000       0.85120000
    68  H          0.49030000       0.54880000       0.64880000
    69  H          0.63470000       0.00890000       0.24300000
    70  H          0.36530000       0.50890000       0.25700000
    71  H          0.36530000      -0.00890000       0.75700000
    72  H          0.63470000       0.49110000       0.74300000
    73  N          0.34551110       0.16376800       0.35210110
    74  N          0.65448890       0.66376800       0.14789890
    75  N          0.65448890       0.83623200       0.64789890
    76  N          0.34551110       0.33623200       0.85210110
    77  N          0.44790120       0.05482900       0.26142100
    78  N          0.55209880       0.55482900       0.23857900
    79  N          0.55209880       0.94517100       0.73857900
    80  N          0.44790120       0.44517100       0.76142100
    81  N          0.30097120       0.87104100       0.42861120
    82  N          0.69902880       0.37104100       0.07138880
    83  N          0.69902880       0.12895900       0.57138880
    84  N          0.30097120       0.62895900       0.92861120
    85  N          0.25038110       0.04145900       0.46260100
    86  N          0.74961890       0.54145900       0.03739900
    87  N          0.74961890       0.95854100       0.53739900
    88  N          0.25038110       0.45854100       0.96260100
    89  O          0.43267130       0.82742200       0.30645120
    90  O          0.56732870       0.32742200       0.19354880
    91  O          0.56732870       0.17257800       0.69354880
    92  O          0.43267130       0.67257800       0.80645120
    93  O          0.17767120       0.91233900       0.55724120
    94  O          0.82232880       0.41233900       0.94275880
    95  O          0.82232880       0.08766100       0.44275880
    96  O          0.17767120       0.58766100       0.05724120
    97  C          0.14808140       0.36544110       0.33941130
    98  C          0.85191860       0.86544110       0.16058870
    99  C          0.85191860       0.63455890       0.66058870
   100  C          0.14808140       0.13455890       0.83941130
   101  C          0.10489140       0.46755100       0.38223130
   102  C          0.89510860       0.96755100       0.11776870
   103  C          0.89510860       0.53244900       0.61776870
   104  C          0.10489140       0.03244900       0.88223130
   105  C          0.02141130       0.45185900       0.47258120
   106  C          0.97858870       0.95185900       0.02741880
   107  C          0.97858870       0.54814100       0.52741880
   108  C          0.02141130       0.04814100       0.97258120
   109  F          0.22544100       0.52480700       0.44373110
   110  F          0.77455900       0.02480700       0.05626890
   111  F          0.77455900       0.47519300       0.55626890
   112  F          0.22544100       0.97519300       0.94373110
   113  F          0.01743130       0.51902900       0.27776900
   114  F         -0.01743130       0.01902900       0.22223100
   115  F         -0.01743130       0.48097100       0.72223100
   116  F          0.01743130       0.98097100       0.77776900
   117  F          0.10627100       0.39400700       0.57167800
   118  F          0.89372900       0.89400700       0.92832200
   119  F          0.89372900       0.60599300       0.42832200
   120  F          0.10627100       0.10599300       0.07167800
   121  F          0.89770100       0.39977700       0.40617900
   122  F          0.10229900       0.89977700       0.09382100
   123  F          0.10229900       0.60022300       0.59382100
   124  F          0.89770100       0.10022300       0.90617900
   125  O          0.28071110       0.33790800       0.41100110
   126  O          0.71928890       0.83790800       0.08899890
   127  O          0.71928890       0.66209200       0.58899890
   128  O          0.28071110       0.16209200       0.91100110
   129  H          0.29550000       0.27900000       0.39120000
   130  H          0.70450000       0.77900000       0.10880000
   131  H          0.70450000       0.72100000       0.60880000
   132  H          0.29550000       0.22100000       0.89120000
   133  O          0.05898130       0.32250110       0.24878120
   134  O          0.94101870       0.82250110       0.25121880
   135  O          0.94101870       0.67749890       0.75121880
   136  O          0.05898130       0.17749890       0.74878120
