data_UVOKIA
_symmetry_space_group_name_H-M    'P1'
_symmetry_Int_Tables_number       1
loop_
_symmetry_equiv_pos_site_id
_symmetry_equiv_pos_as_xyz
1 x,y,z
_cell_length_a                   8.697217
_cell_length_b                   13.7623
_cell_length_c                   15.3813
_cell_angle_alpha                69.3889
_cell_angle_beta                 75.3421
_cell_angle_gamma                72.61801
loop_
_atom_site_label
_atom_site_type_symbol
_atom_site_fract_x
_atom_site_fract_y
_atom_site_fract_z
     1  C          0.82192000       0.48117150       0.23232140
     2  C          0.17808000       0.51882850       0.76767860
     3  C          0.67542000       0.50100160       0.20006140
     4  C          0.32458000       0.49899840       0.79993860
     5  C          0.65942000       0.56477160       0.10873140
     6  C          0.34058000       0.43522840       0.89126860
     7  C          0.78872000       0.60750160       0.04846140
     8  C          0.21128000       0.39249840       0.95153860
     9  C          0.93712000       0.58356150       0.07930140
    10  C          0.06288000       0.41643850       0.92069860
    11  C          0.95212000       0.52174160       0.17141140
    12  C          0.04788000       0.47825840       0.82858860
    13  C          0.83612000       0.41522160       0.33390140
    14  C          0.16388000       0.58477840       0.66609860
    15  C          0.53332000       0.45776160       0.26918140
    16  C          0.46668000       0.54223840       0.73081860
    17  Cl         0.47607600       0.59516400       0.06984400
    18  Cl         0.52392400       0.40483600       0.93015600
    19  Cl         0.76717600       0.68803400       0.93569700
    20  Cl         0.23282400       0.31196600       0.06430300
    21  Cl         0.09952600       0.63103400       0.00283300
    22  Cl         0.90047400       0.36896600      -0.00283300
    23  Cl         0.13483600       0.49143400       0.21082300
    24  Cl         0.86516400       0.50856600       0.78917700
    25  O          0.82904190       0.46105120       0.39140100
    26  O          0.17095810       0.53894880       0.60859900
    27  O          0.84842180       0.31577110       0.35278100
    28  O          0.15157820       0.68422890       0.64721900
    29  O          0.48262000       0.49028130       0.33959110
    30  O          0.51738000       0.50971870       0.66040890
    31  O          0.47819170       0.39221110       0.25293100
    32  O          0.52180830       0.60778890       0.74706900
    33  C          0.92323000       0.05523160       0.20767140
    34  C          0.07677000       0.94476840       0.79232860
    35  C          0.77473000       0.08973160       0.17426140
    36  C          0.22527000       0.91026840       0.82573860
    37  C          0.74263000       0.03654170       0.12159140
    38  C          0.25737000       0.96345830       0.87840860
    39  C          0.85913000       0.94889830       0.10079140
    40  C          0.14087000       0.05110170       0.89920860
    41  C          0.00813000       0.91533840       0.13277140
    42  C         -0.00813000       0.08466160       0.86722860
    43  C          0.04033000       0.96925830       0.18561140
    44  C          0.95967000       0.03074170       0.81438860
    45  C          0.94633000       0.10950170       0.27186150
    46  C          0.05367000       0.89049830       0.72813850
    47  C          0.64572000       0.17577170       0.20869150
    48  C          0.35428000       0.82422830       0.79130850
    49  Cl         0.55442700       0.07527500       0.08695400
    50  Cl         0.44557300       0.92472500       0.91304600
    51  Cl         0.81806700       0.88200600       0.03655400
    52  Cl         0.18193300       0.11799400       0.96344600
    53  Cl         0.15223700       0.80801600       0.10737400
    54  Cl         0.84776300       0.19198400       0.89262600
    55  Cl         0.22773600       0.93143500       0.22118400
    56  Cl         0.77226400       0.06856500       0.77881600
    57  O          0.92425190       0.21231120       0.23277100
    58  O          0.07574810       0.78768880       0.76722900
    59  H          0.93770000       0.24040000       0.26990000
    60  H          0.06230000       0.75960000       0.73010000
    61  O          0.97362000       0.06017130       0.35098110
    62  O          0.02638000       0.93982870       0.64901890
    63  O          0.62076180       0.26954120       0.14668100
    64  O          0.37923820       0.73045880       0.85331900
    65  H          0.54790000       0.31250000       0.17110000
    66  H          0.45210000       0.68750000       0.82890000
    67  O          0.57842000       0.15309130       0.29054110
    68  O          0.42158000       0.84690870       0.70945890
    69  C          0.58912000       0.26491160       0.57298140
    70  C          0.41088000       0.73508840       0.42701860
    71  C          0.47783000       0.21799170       0.65167140
    72  C          0.52217000       0.78200830       0.34832860
    73  C          0.44503000       0.12603170       0.65291150
    74  C          0.55497000       0.87396830       0.34708850
    75  H          0.36970000       0.09430000       0.70380000
    76  H          0.63030000       0.90570000       0.29620000
    77  C          0.51863000       0.07690180       0.58151160
    78  C          0.48137000       0.92309820       0.41848840
    79  H          0.49480000       0.01280000       0.58410000
    80  H          0.50520000       0.98720000       0.41590000
    81  C          0.62473000       0.12387180       0.50867160
    82  C          0.37527000       0.87612820       0.49132840
    83  H          0.67630000       0.09250000       0.45950000
    84  H          0.32370000       0.90750000       0.54050000
    85  C          0.40523000       0.27119180       0.72747160
    86  C          0.59477000       0.72880820       0.27252840
    87  H          0.34410000       0.34400000       0.70030000
    88  H          0.65590000       0.65600000       0.29970000
    89  H          0.49270000       0.27370000       0.75560000
    90  H          0.50730000       0.72630000       0.24440000
    91  H          0.33130000       0.23070000       0.77610000
    92  H          0.66870000       0.76930000       0.22390000
    93  N          0.65692000       0.21554140       0.50616120
    94  N          0.34308000       0.78445860       0.49383880
    95  H          0.72600000       0.24430000       0.45820000
    96  H          0.27400000       0.75570000       0.54180000
    97  N          0.62822000       0.35485150       0.56363130
    98  N          0.37178000       0.64514850       0.43636870
    99  H          0.69740000       0.38120000       0.51430000
   100  H          0.30260000       0.61880000       0.48570000
   101  H          0.58490000       0.38800000       0.60670000
   102  H          0.41510000       0.61200000       0.39330000
   103  C          0.19642000       0.32552160       0.48343140
   104  C          0.80358000       0.67447840       0.51656860
   105  C          0.08362000       0.27476170       0.55759140
   106  C          0.91638000       0.72523830       0.44240860
   107  C          0.05133000       0.18660170       0.55150150
   108  C          0.94867000       0.81339830       0.44849850
   109  H          0.97750000       0.15130000       0.60070000
   110  H          0.02250000       0.84870000       0.39930000
   111  C          0.12403000       0.14623170       0.47443160
   112  C          0.87597000       0.85376830       0.52556840
   113  H          0.10080000       0.08420000       0.47170000
   114  H          0.89920000       0.91580000       0.52830000
   115  C          0.22823000       0.19830170       0.40407160
   116  C          0.77177000       0.80169830       0.59592840
   117  H          0.27640000       0.17390000       0.35050000
   118  H          0.72360000       0.82610000       0.64950000
   119  C          0.00503000       0.32028190       0.63791150
   120  C         -0.00503000       0.67971810       0.36208850
   121  H          0.95360000       0.39610000       0.61320000
   122  H          0.04640000       0.60390000       0.38680000
   123  H          0.08810000       0.31250000       0.67410000
   124  H          0.91190000       0.68750000       0.32590000
   125  H          0.92180000       0.28200000       0.67880000
   126  H          0.07820000       0.71800000       0.32120000
   127  N          0.26342000       0.28547140       0.41032120
   128  N          0.73658000       0.71452860       0.58967880
   129  H          0.33290000       0.31700000       0.36470000
   130  H          0.66710000       0.68300000       0.63530000
   131  N          0.24062000       0.41012150       0.48375130
   132  N          0.75938000       0.58987850       0.51624870
   133  H          0.31190000       0.43840000       0.43700000
   134  H          0.68810000       0.56160000       0.56300000
   135  H          0.19860000       0.43770000       0.53070000
   136  H          0.80140000       0.56230000       0.46930000
