data_UVUWAK
_symmetry_space_group_name_H-M    'P1'
_symmetry_Int_Tables_number       1
loop_
_symmetry_equiv_pos_site_id
_symmetry_equiv_pos_as_xyz
1 x,y,z
_cell_length_a                   8.8443
_cell_length_b                   14.4977
_cell_length_c                   17.4194
_cell_angle_alpha                79.9723
_cell_angle_beta                 86.2733
_cell_angle_gamma                74.6313
loop_
_atom_site_label
_atom_site_type_symbol
_atom_site_fract_x
_atom_site_fract_y
_atom_site_fract_z
     1  Br         0.08913000       0.53363170       0.85600140
     2  Br         0.91087000       0.46636830       0.14399860
     3  Br         0.58583000       0.30341160       0.13925130
     4  Br         0.41417000       0.69658840       0.86074870
     5  Cl         0.12098000       0.62433000       0.01163000
     6  Cl         0.87902000       0.37567000       0.98837000
     7  S          0.30107000       0.13894000       0.97223000
     8  S          0.69893000       0.86106000       0.02777000
     9  O          0.36820000       0.35931000       0.86027000
    10  O          0.63180000       0.64069000       0.13973000
    11  O          0.37081900       0.50759000       0.11688000
    12  O          0.62918100       0.49241000       0.88312000
    13  O          0.18771900       0.23159000       0.97699000
    14  O          0.81228100       0.76841000       0.02301000
    15  O          0.32671800       0.07731000       0.04458000
    16  O          0.67328200       0.92269000       0.95542000
    17  O          0.27020000       0.09471100       0.90839000
    18  O          0.72980000       0.90528900       0.09161000
    19  N          0.52120000       0.22861100       0.99179000
    20  N          0.47880000       0.77138900       0.00821000
    21  C          0.34920000       0.38111400       0.92581200
    22  C          0.65080000       0.61888600       0.07418800
    23  C          0.23220000       0.46991600       0.93661100
    24  C          0.76780000       0.53008400       0.06338900
    25  C          0.24820000       0.51071300      -0.00358800
    26  C          0.75180000       0.48928700       0.00358800
    27  C          0.36020000       0.46901400       0.06281300
    28  C          0.63980000       0.53098600       0.93718700
    29  C          0.45520000       0.37171300       0.05671100
    30  C          0.54480000       0.62828700       0.94328900
    31  C          0.44220000       0.32081400      -0.00399000
    32  C          0.55780000       0.67918600       0.00399000
    33  C          0.48020000       0.16451300       0.94471100
    34  C          0.51980000       0.83548700       0.05528900
    35  H          0.60920000       0.20160000       0.02440000
    36  H          0.39080000       0.79840000       0.97560000
    37  H          0.56950000       0.09670000       0.96350000
    38  H          0.43050000       0.90330000       0.03650000
    39  H          0.48050000       0.19770000       0.89050000
    40  H          0.51950000       0.80230000       0.10950000
    41  S          0.11598000       0.83785000       0.24913000
    42  S          0.88402000       0.16215000       0.75087000
    43  S          0.92871000       0.64964000       0.28524000
    44  S          0.07129000       0.35036000       0.71476000
    45  S          0.96103000       0.88974000       0.39593000
    46  S          0.03897000       0.11026000       0.60407000
    47  S          0.79953000       0.73494000       0.42323000
    48  S          0.20047000       0.26506000       0.57677000
    49  S          0.76193000       0.98543000       0.53813000
    50  S          0.23807000       0.01457000       0.46187000
    51  S          0.59773000       0.82993000       0.56403000
    52  S          0.40227000       0.17007000       0.43597000
    53  S          0.58601000       0.08844000       0.66003000
    54  S          0.41399000       0.91156000       0.33997000
    55  S          0.39522000       0.90464000       0.69093000
    56  S          0.60478000       0.09536000       0.30907000
    57  C          0.09850000       0.75430000       0.18981900
    58  C          0.90150000       0.24570000       0.81018100
    59  C          0.05150000       0.67430000       0.20820000
    60  C          0.94850000       0.32570000       0.79180000
    61  C          0.98880000       0.81151400       0.32601200
    62  C          0.01120000       0.18848600       0.67398800
    63  C          0.91980000       0.73981500       0.34211000
    64  C          0.08020000       0.26018500       0.65789000
    65  C          0.82180000       0.84241500       0.45171100
    66  C          0.17820000       0.15758500       0.54828900
    67  C          0.73780000       0.88151400       0.51011200
    68  C          0.26220000       0.11848600       0.48988800
    69  C          0.61680000      -0.00788800       0.61071000
    70  C          0.38320000       0.00788800       0.38929000
    71  C          0.53870000       0.92241500       0.62221100
    72  C          0.46130000       0.07758500       0.37778900
    73  C          0.49350000       0.05020000       0.74721600
    74  C          0.50650000       0.94980000       0.25278400
    75  C          0.38560000      -0.00780000       0.75001800
    76  C          0.61440000       0.00780000       0.24998200
    77  H          0.02870000       0.64880000       0.16420000
    78  H          0.97130000       0.35120000       0.83580000
    79  H          0.14590000       0.63700000       0.23060000
    80  H          0.85410000       0.36300000       0.76940000
    81  H          0.01020000       0.78760000       0.15670000
    82  H         -0.01020000       0.21240000       0.84330000
    83  H          0.18840000       0.74150000       0.15950000
    84  H          0.81160000       0.25850000       0.84050000
    85  H          0.28670000       0.03620000       0.74020000
    86  H          0.71330000       0.96380000       0.25980000
    87  H          0.39240000       0.95930000       0.80210000
    88  H          0.60760000       0.04070000       0.19790000
    89  H          0.43430000       0.10900000       0.76340000
    90  H          0.56570000       0.89100000       0.23660000
    91  H          0.57130000       0.01770000       0.78490000
    92  H          0.42870000       0.98230000       0.21510000
    93  S          0.51968000       0.64544000       0.31933000
    94  S          0.48032000       0.35456000       0.68067000
    95  S          0.34349000       0.45805000       0.35035000
    96  S          0.65651000       0.54195000       0.64965000
    97  S          0.34077000       0.70534000       0.45933000
    98  S          0.65923000       0.29466000       0.54067000
    99  S          0.18467000       0.54694000       0.48263000
   100  S          0.81533000       0.45306000       0.51737000
   101  S          0.14817000       0.79104000       0.60413000
   102  S          0.85183000       0.20896000       0.39587000
   103  S          0.98103000       0.63764000       0.62463000
   104  S          0.01897000       0.36236000       0.37537000
   105  S         -0.01069000       0.87964000       0.73793000
   106  S          0.01069000       0.12036000       0.26207000
   107  S          0.78612000       0.70005000       0.75683000
   108  S          0.21388000       0.29995000       0.24317000
   109  C          0.61030000       0.52520000       0.31120000
   110  C          0.38970000       0.47480000       0.68880000
   111  C          0.51940000       0.46220000       0.29521900
   112  C          0.48060000       0.53780000       0.70478100
   113  C          0.38720000       0.62631500       0.39161000
   114  C          0.61280000       0.37368500       0.60839000
   115  C          0.32020000       0.55281400       0.40301100
   116  C          0.67980000       0.44718600       0.59698900
   117  C          0.19820000       0.65261200       0.51171100
   118  C          0.80180000       0.34738800       0.48828900
   119  C          0.11820000       0.69071200       0.57329000
   120  C          0.88180000       0.30928800       0.42671000
   121  C          0.01120000       0.78981700       0.67941100
   122  C          0.98880000       0.21018300       0.32058900
   123  C          0.92780000       0.72151400       0.68979000
   124  C          0.07220000       0.27848600       0.31021000
   125  C          0.90760000       0.82830000       0.81920000
   126  C          0.09240000       0.17170000       0.18080000
   127  C          0.80260000       0.77251700       0.82701400
   128  C          0.19740000       0.22748300       0.17298600
   129  H          0.48290000       0.48900000       0.24270000
   130  H          0.51710000       0.51100000       0.75730000
   131  H          0.58260000       0.39930000       0.29690000
   132  H          0.41740000       0.60070000       0.70310000
   133  H          0.69000000       0.52600000       0.27250000
   134  H          0.31000000       0.47400000       0.72750000
   135  H          0.65460000       0.49570000       0.36050000
   136  H          0.34540000       0.50430000       0.63950000
   137  H          0.70040000       0.81360000       0.83230000
   138  H          0.29960000       0.18640000       0.16770000
   139  H          0.83110000       0.72890000       0.87390000
   140  H          0.16890000       0.27110000       0.12610000
   141  H          0.85130000       0.88270000       0.84050000
   142  H          0.14870000       0.11730000       0.15950000
   143  H         -0.00780000       0.79240000       0.85030000
   144  H          0.00780000       0.20760000       0.14970000
   145  O          0.76320000       0.08781200       0.07221200
   146  O          0.23680000       0.91218800       0.92778800
   147  C          0.88950000       0.10130000       0.03630000
   148  C          0.11050000       0.89870000       0.96370000
   149  H          0.87250000       0.13300000       0.98110000
   150  H          0.12750000       0.86700000       0.01890000
   151  H          0.93430000       0.13590000       0.06220000
   152  H          0.06570000       0.86410000       0.93780000
   153  H          0.95840000       0.03760000       0.03410000
   154  H          0.04160000       0.96240000       0.96590000
   155  H          0.78130000       0.03090000       0.11090000
   156  H          0.21870000       0.96910000       0.88910000
