data_UWAQOB
_symmetry_space_group_name_H-M    'P1'
_symmetry_Int_Tables_number       1
loop_
_symmetry_equiv_pos_site_id
_symmetry_equiv_pos_as_xyz
1 x,y,z
_cell_length_a                   10.17872
_cell_length_b                   13.14563
_cell_length_c                   17.40333
_cell_angle_alpha                93.3582
_cell_angle_beta                 91.4172
_cell_angle_gamma                95.4372
loop_
_atom_site_label
_atom_site_type_symbol
_atom_site_fract_x
_atom_site_fract_y
_atom_site_fract_z
     1  Br         0.71394700       0.19058300       0.92229200
     2  Br         0.28605300       0.80941700       0.07770800
     3  O          0.58170150       0.59726120       0.46505800
     4  O          0.41829850       0.40273880       0.53494200
     5  O          0.34227160       0.51138130       0.38815900
     6  O          0.65772840       0.48861870       0.61184100
     7  O          0.38897160       0.67829130       0.28262900
     8  O          0.61102840       0.32170870       0.71737100
     9  O          0.63941160       0.78931130       0.54266800
    10  O          0.36058840       0.21068870       0.45733200
    11  O          0.43130160       0.88790120       0.32849900
    12  O          0.56869840       0.11209880       0.67150100
    13  O          0.06840150       0.93656130       0.61423900
    14  O          0.93159850       0.06343870       0.38576100
    15  N          0.49662180       0.82734140       0.44461100
    16  N          0.50337820       0.17265860       0.55538900
    17  C          0.91072000       0.30146170       0.17754130
    18  C          0.08928000       0.69853830       0.82245870
    19  C          0.02392000       0.37553180       0.19553130
    20  C          0.97608000       0.62446820       0.80446870
    21  C          0.02662000       0.45155190       0.13798120
    22  C          0.97338000       0.54844810       0.86201880
    23  C          0.91542000       0.42430190       0.08488120
    24  C          0.08458000       0.57569810       0.91511880
    25  C          0.84392000       0.33141180       0.10922120
    26  C          0.15608000       0.66858820       0.89077880
    27  C          0.70692000       0.31843180       0.10270120
    28  C          0.29308000       0.68156820       0.89729880
    29  C          0.63112000       0.27458170       0.16415130
    30  C          0.36888000       0.72541830       0.83584870
    31  C          0.69582000       0.24624160       0.22964130
    32  C          0.30418000       0.75375840       0.77035870
    33  C          0.83812000       0.25990170       0.23669130
    34  C          0.16188000       0.74009830       0.76330870
    35  C          0.87392000       0.29207180       0.31621130
    36  C          0.12608000       0.70792820       0.68378870
    37  C          0.98102000       0.36331180       0.33383120
    38  C          0.01898000       0.63668820       0.66616880
    39  C          0.05822000       0.40603190       0.27245130
    40  C          0.94178000       0.59396810       0.72754870
    41  C          0.09692000       0.51271190       0.29417130
    42  C          0.90308000       0.48728810       0.70582870
    43  C          0.10182000       0.58449190       0.23915130
    44  C          0.89818000       0.41550810       0.76084870
    45  C          0.06522000       0.55402190       0.15919130
    46  C          0.93478000       0.44597810       0.84080870
    47  C         -0.00568000       0.63346180       0.12857130
    48  C          0.00568000       0.36653820       0.87142870
    49  C          0.88582000       0.60748180       0.07830120
    50  C          0.11418000       0.39251820       0.92169880
    51  C          0.84662000       0.50086190       0.05571110
    52  C          0.15338000       0.49913810       0.94428890
    53  C          0.70352000       0.48786190       0.04962110
    54  C          0.29648000       0.51213810       0.95037890
    55  C          0.63542000       0.39837190       0.07203120
    56  C          0.36458000       0.60162810       0.92796880
    57  C          0.51612000       0.40449180       0.11549120
    58  C          0.48388000       0.59550820       0.88450880
    59  C          0.51292000       0.32749170       0.17111130
    60  C          0.48708000       0.67250830       0.82888870
    61  C          0.46272000       0.34927170       0.24311130
    62  C          0.53728000       0.65072830       0.75688870
    63  C          0.52962000       0.31926170       0.31119130
    64  C          0.47038000       0.68073830       0.68880870
    65  C          0.64362000       0.26939160       0.30467130
    66  C          0.35638000       0.73060840       0.69532870
    67  C          0.75332000       0.29888170       0.35772120
    68  C          0.24668000       0.70111830       0.64227880
    69  C          0.74262000       0.37796170       0.41293120
    70  C          0.25738000       0.62203830       0.58706880
    71  C          0.85452000       0.45384180       0.43070110
    72  C          0.14548000       0.54615820       0.56929890
    73  C          0.97182000       0.44477180       0.39315120
    74  C          0.02818000       0.55522820       0.60684880
    75  C          0.04312000       0.53628190       0.36932120
    76  C          0.95688000       0.46371810       0.63067880
    77  C         -0.00278000       0.63083180       0.38656120
    78  C          0.00278000       0.36916820       0.61343880
    79  C          0.00502000       0.70475180       0.32895130
    80  C         -0.00502000       0.29524820       0.67104870
    81  C          0.05462000       0.68307180       0.25699130
    82  C          0.94538000       0.31692820       0.74300870
    83  C         -0.01268000       0.71334180       0.18867130
    84  C          0.01268000       0.28665820       0.81132870
    85  C          0.87362000       0.76264170       0.19588130
    86  C          0.12638000       0.23735830       0.80411870
    87  C          0.75972000       0.73528170       0.14592120
    88  C          0.24028000       0.26471830       0.85407880
    89  C          0.76742000       0.65938180       0.08738120
    90  C          0.23258000       0.34061820       0.91261880
    91  C          0.65542000       0.58575180       0.06999110
    92  C          0.34458000       0.41424820       0.93000890
    93  C          0.54422000       0.59204180       0.11374110
    94  C          0.45578000       0.40795820       0.88625890
    95  C          0.47182000       0.49869180       0.13580120
    96  C          0.52818000       0.50130820       0.86419880
    97  C          0.41162000       0.51839180       0.20875120
    98  C          0.58838000       0.48160820       0.79124880
    99  C          0.40482000       0.44352170       0.26117120
   100  C          0.59518000       0.55647830       0.73882880
   101  C          0.40832000       0.45935170       0.34874120
   102  C          0.59168000       0.54064830       0.65125880
   103  C          0.51592000       0.39456170       0.37320120
   104  C          0.48408000       0.60543830       0.62679880
   105  C          0.62252000       0.42523170       0.42184110
   106  C          0.37748000       0.57476830       0.57815890
   107  C          0.65772000       0.53348170       0.45413110
   108  C          0.34228000       0.46651830       0.54586890
   109  C          0.80722000       0.55200170       0.45087110
   110  C          0.19278000       0.44799830       0.54912890
   111  C          0.87672000       0.64140170       0.42985110
   112  C          0.12328000       0.35859830       0.57014890
   113  C          0.81962000       0.73413170       0.40268120
   114  C          0.18038000       0.26586830       0.59731880
   115  C          0.89152000       0.76167160       0.33667120
   116  C          0.10848000       0.23832840       0.66332880
   117  C          0.82562000       0.78994160       0.27081120
   118  C          0.17438000       0.21005840       0.72918880
   119  C          0.68672000       0.79169160       0.26846120
   120  C          0.31328000       0.20830840       0.73153880
   121  C          0.64092000       0.74502170       0.19037120
   122  C          0.35908000       0.25497830       0.80962880
   123  C          0.53362000       0.67312170       0.17278120
   124  C          0.46638000       0.32687830       0.82721880
   125  C          0.43202000       0.63233180       0.22864120
   126  C          0.56798000       0.36766820       0.77135880
   127  C          0.63102000       0.80195160       0.34107120
   128  C          0.36898000       0.19804840       0.65892880
   129  C          0.69652000       0.77356160       0.40745120
   130  C          0.30348000       0.22643840       0.59254880
   131  C          0.61212000       0.79353160       0.47508120
   132  C          0.38788000       0.20646840       0.52491880
   133  C          0.50492000       0.84233160       0.36533120
   134  C          0.49508000       0.15766840       0.63466880
   135  C          0.38692000       0.85518160       0.48865120
   136  C          0.61308000       0.14481840       0.51134880
   137  C          0.40562000       0.91390160       0.55810120
   138  C          0.59438000       0.08609840       0.44189880
   139  H          0.49040000       0.93610000       0.57700000
   140  H          0.50960000       0.06390000       0.42300000
   141  C          0.29672000       0.93878160       0.59866120
   142  C          0.70328000       0.06121840       0.40133880
   143  H          0.30850000       0.97660000       0.64560000
   144  H          0.69150000       0.02340000       0.35440000
   145  C          0.16892000       0.90759160       0.56972120
   146  C          0.83108000       0.09240840       0.43027880
   147  C          0.15162000       0.84973170       0.50030120
   148  C          0.84838000       0.15026830       0.49969880
   149  H          0.06700000       0.82890000       0.48050000
   150  H          0.93300000       0.17110000       0.51950000
   151  C          0.26102000       0.82311170       0.46058120
   152  C          0.73898000       0.17688830       0.53941880
   153  H          0.24940000       0.78320000       0.41450000
   154  H          0.75060000       0.21680000       0.58550000
   155  C          0.93568000       0.90997190       0.58442130
   156  C          0.06432000       0.09002810       0.41557870
   157  H          0.91710000       0.83610000       0.57840000
   158  H          0.08290000       0.16390000       0.42160000
   159  H          0.92470000       0.93770000       0.53450000
   160  H          0.07530000       0.06230000       0.46550000
   161  C          0.84278000       0.95446190       0.64102130
   162  C          0.15722000       0.04553810       0.35897870
   163  H          0.75940000       0.96090000       0.61450000
   164  H          0.24060000       0.03910000       0.38550000
   165  H          0.87980000       0.02260000       0.65910000
   166  H          0.12020000       0.97740000       0.34090000
   167  C          0.81737000       0.89062000       0.70988140
   168  C          0.18263000       0.10938000       0.29011860
   169  H          0.89930000       0.88970000       0.73940000
   170  H          0.10070000       0.11030000       0.26060000
   171  H          0.78820000       0.82080000       0.69180000
   172  H          0.21180000       0.17920000       0.30820000
   173  C          0.71317000       0.93172000       0.76230140
   174  C          0.28683000       0.06828000       0.23769860
   175  H          0.63620000       0.94280000       0.73110000
   176  H          0.36380000       0.05720000       0.26890000
   177  H          0.68620000       0.88050000       0.79820000
   178  H          0.31380000       0.11950000       0.20180000
   179  C          0.76187000       0.03132000       0.80761150
   180  C          0.23813000       0.96868000       0.19238850
   181  H          0.83470000       0.01970000       0.84200000
   182  H          0.16530000       0.98030000       0.15800000
   183  H          0.79380000       0.08190000       0.77240000
   184  H          0.20620000       0.91810000       0.22760000
   185  C          0.65177000       0.07122000       0.85390150
   186  C          0.34823000       0.92878000       0.14609850
   187  H          0.61320000       0.01730000       0.88440000
   188  H          0.38680000       0.98270000       0.11560000
   189  H          0.58350000       0.08960000       0.81900000
   190  H          0.41650000       0.91040000       0.18100000
   191  C          0.79783000       0.94442000       0.06281150
   192  C          0.20217000       0.05558000       0.93718850
   193  C          0.67253000       0.91062000       0.02962170
   194  C          0.32747000       0.08938000       0.97037830
   195  H          0.59800000       0.93830000       0.04850000
   196  H          0.40200000       0.06170000       0.95150000
   197  C          0.65913000       0.83832000       0.97058830
   198  C          0.34087000       0.16168000       0.02941170
   199  H          0.57540000       0.81690000       0.94970000
   200  H          0.42460000       0.18310000       0.05030000
   201  C          0.76764000       0.79562000       0.94076840
   202  C          0.23236000       0.20438000       0.05923160
   203  H          0.75690000       0.74540000       0.90060000
   204  H          0.24310000       0.25460000       0.09940000
   205  C          0.88983000       0.82782000       0.97076830
   206  C          0.11017000       0.17218000       0.02923170
   207  H          0.96360000       0.80100000       0.95020000
   208  H          0.03640000       0.19900000       0.04980000
   209  C          0.90483000       0.90162000       0.03280170
   210  C          0.09517000       0.09838000       0.96719830
   211  H         -0.01130000       0.92190000       0.05390000
   212  H          0.01130000       0.07810000       0.94610000
   213  C          0.81225000       0.02273000       0.12802000
   214  C          0.18775000       0.97727000       0.87198000
   215  H          0.83080000       0.08920000       0.10860000
   216  H          0.16920000       0.91080000       0.89140000
   217  H          0.88340000       0.00890000       0.16180000
   218  H          0.11660000      -0.00890000       0.83820000
   219  H          0.73180000       0.02060000       0.15570000
   220  H          0.26820000       0.97940000       0.84430000
