data_UWEMUG
_symmetry_space_group_name_H-M    'P1'
_symmetry_Int_Tables_number       1
loop_
_symmetry_equiv_pos_site_id
_symmetry_equiv_pos_as_xyz
1 x,y,z
_cell_length_a                   18.7218
_cell_length_b                   13.9446
_cell_length_c                   8.7064
_cell_angle_alpha                90.0
_cell_angle_beta                 95.4898
_cell_angle_gamma                90.0
loop_
_atom_site_label
_atom_site_type_symbol
_atom_site_fract_x
_atom_site_fract_y
_atom_site_fract_z
     1  P          0.14023900       0.82166110      -0.00972180
     2  P          0.85976100       0.32166110       0.50972180
     3  P          0.85976100       0.17833890       0.00972180
     4  P          0.14023900       0.67833890       0.49027820
     5  O          0.18812000       0.89223000       0.10014000
     6  O          0.81188000       0.39223000       0.39986000
     7  O          0.81188000       0.10777000       0.89986000
     8  O          0.18812000       0.60777000       0.60014000
     9  O          0.18112000       0.78323000       0.86516000
    10  O          0.81888000       0.28323000       0.63484000
    11  O          0.81888000       0.21677000       0.13484000
    12  O          0.18112000       0.71677000       0.36516000
    13  F          0.29952000       0.76552000       0.16614000
    14  F          0.70048000       0.26552000       0.33386000
    15  F          0.70048000       0.23448000       0.83386000
    16  F          0.29952000       0.73448000       0.66614000
    17  O          0.24112000       0.04193000       0.27945000
    18  O          0.75888000       0.54193000       0.22055000
    19  O          0.75888000       0.95807000       0.72055000
    20  O          0.24112000       0.45807000       0.77945000
    21  H          0.19380000       0.03400000       0.30120000
    22  H          0.80620000       0.53400000       0.19880000
    23  H          0.80620000       0.96600000       0.69880000
    24  H          0.19380000       0.46600000       0.80120000
    25  O          0.11303000       0.74843000       0.10275000
    26  O          0.88697000       0.24843000       0.39725000
    27  O          0.88697000       0.25157000       0.89725000
    28  O          0.11303000       0.75157000       0.60275000
    29  F          0.36242000       0.03553000       0.48885000
    30  F          0.63758000       0.53553000       0.01115000
    31  F          0.63758000       0.96447000       0.51115000
    32  F          0.36242000       0.46447000      -0.01115000
    33  F          0.40012000       0.83503000       0.14355000
    34  F          0.59988000       0.33503000       0.35645000
    35  F          0.59988000       0.16497000       0.85645000
    36  F          0.40012000       0.66497000       0.64355000
    37  F          0.44342000       0.96473000       0.36775000
    38  F          0.55658000       0.46473000       0.13225000
    39  F          0.55658000       0.03527000       0.63225000
    40  F          0.44342000       0.53527000       0.86775000
    41  O          0.26793000       0.88013000       0.40865000
    42  O          0.73207000       0.38013000       0.09135000
    43  O          0.73207000       0.11987000       0.59135000
    44  O          0.26793000       0.61987000       0.90865000
    45  O          0.07042000       0.87413000       0.92765000
    46  O          0.92958000       0.37413000       0.57235000
    47  O          0.92958000       0.12587000       0.07235000
    48  O          0.07042000       0.62587000       0.42765000
    49  F          0.38312000       0.75773000       0.34755000
    50  F          0.61688000       0.25773000       0.15245000
    51  F          0.61688000       0.24227000       0.65245000
    52  F          0.38312000       0.74227000       0.84755000
    53  C          0.32223000       0.90864000       0.31467000
    54  C          0.67777000       0.40864000       0.18533000
    55  C          0.67777000       0.09136000       0.68533000
    56  C          0.32223000       0.59136000       0.81467000
    57  C          0.21733000       0.02744000       0.93523000
    58  C          0.78267000       0.52744000       0.56477000
    59  C          0.78267000       0.97256000       0.06477000
    60  C          0.21733000       0.47256000       0.43523000
    61  F          0.39642000       0.89313000       0.55344000
    62  F          0.60358000       0.39313000       0.94656000
    63  F          0.60358000       0.10687000       0.44656000
    64  F          0.39642000       0.60687000       0.05344000
    65  C          0.24583000       0.94844000       0.04676000
    66  C          0.75417000       0.44844000       0.45324000
    67  C          0.75417000       0.05156000       0.95324000
    68  C          0.24583000       0.55156000       0.54676000
    69  H          0.27720000       0.90600000      -0.00640000
    70  H          0.72280000       0.40600000       0.50640000
    71  H          0.72280000       0.09400000       0.00640000
    72  H          0.27720000       0.59400000       0.49360000
    73  C          0.28963000      -0.00886000       0.19427000
    74  C          0.71037000       0.49114000       0.30573000
    75  C          0.71037000       0.00886000       0.80573000
    76  C          0.28963000       0.50886000       0.69427000
    77  C          0.35184000       0.81875000       0.24168000
    78  C          0.64816000       0.31875000       0.25832000
    79  C          0.64816000       0.18125000       0.75832000
    80  C          0.35184000       0.68125000       0.74168000
    81  C          0.34444000       0.06184000       0.14058000
    82  C          0.65556000       0.56184000       0.35942000
    83  C          0.65556000       0.93816000       0.85942000
    84  C          0.34444000       0.43816000       0.64058000
    85  C          0.39124000       0.03805000       0.03198000
    86  C          0.60876000       0.53805000       0.46802000
    87  C          0.60876000       0.96195000       0.96802000
    88  C          0.39124000       0.46195000       0.53198000
    89  H          0.39150000       0.97540000      -0.00510000
    90  H          0.60850000       0.47540000       0.50510000
    91  H          0.60850000       0.02460000       0.00510000
    92  H          0.39150000       0.52460000       0.49490000
    93  C          0.16906000       0.17676000       0.74298800
    94  C          0.83094000       0.67676000       0.75701200
    95  C          0.83094000       0.82324000       0.25701200
    96  C          0.16906000       0.32324000       0.24298800
    97  H          0.15390000       0.22770000       0.67920000
    98  H          0.84610000       0.72770000       0.82080000
    99  H          0.84610000       0.77230000       0.32080000
   100  H          0.15390000       0.27230000       0.17920000
   101  C          0.22175000       0.11597000       0.69969000
   102  C          0.77825000       0.61597000       0.80031000
   103  C          0.77825000       0.88403000       0.30031000
   104  C          0.22175000       0.38403000       0.19969000
   105  H          0.24150000       0.12540000       0.60690000
   106  H          0.75850000       0.62540000       0.89310000
   107  H          0.75850000       0.87460000       0.39310000
   108  H          0.24150000       0.37460000       0.10690000
   109  C          0.24514000       0.03995000       0.79652000
   110  C          0.75486000       0.53995000       0.70348000
   111  C          0.75486000       0.96005000       0.20348000
   112  C          0.24514000       0.46005000       0.29652000
   113  H          0.27970000      -0.00230000       0.76680000
   114  H          0.72030000       0.49770000       0.73320000
   115  H          0.72030000       0.00230000       0.23320000
   116  H          0.27970000       0.50230000       0.26680000
   117  C          0.34474000       0.15665000       0.19168000
   118  C          0.65526000       0.65665000       0.30832000
   119  C          0.65526000       0.84335000       0.80832000
   120  C          0.34474000       0.34335000       0.69168000
   121  H          0.31350000       0.17520000       0.26310000
   122  H          0.68650000       0.67520000       0.23690000
   123  H          0.68650000       0.82480000       0.73690000
   124  H          0.31350000       0.32480000       0.76310000
   125  C          0.43715000       0.19827000       0.02921100
   126  C          0.56285000       0.69827000       0.47078900
   127  C          0.56285000       0.80173000       0.97078900
   128  C          0.43715000       0.30173000       0.52921100
   129  H          0.46770000       0.24340000      -0.00790000
   130  H          0.53230000       0.74340000       0.50790000
   131  H          0.53230000       0.75660000       0.00790000
   132  H          0.46770000       0.25660000       0.49210000
   133  C          0.16304000       0.08595000       0.97452000
   134  C          0.83696000       0.58595000       0.52548000
   135  C          0.83696000       0.91405000       0.02548000
   136  C          0.16304000       0.41405000       0.47452000
   137  H          0.14210000       0.07470000       0.06560000
   138  H          0.85790000       0.57470000       0.43440000
   139  H          0.85790000       0.92530000       0.93440000
   140  H          0.14210000       0.42530000       0.56560000
   141  C          0.13866000       0.16326000       0.87838900
   142  C          0.86134000       0.66326000       0.62161100
   143  C          0.86134000       0.83674000       0.12161100
   144  C          0.13866000       0.33674000       0.37838900
   145  H          0.10270000       0.20390000       0.90640000
   146  H          0.89730000       0.70390000       0.59360000
   147  H          0.89730000       0.79610000       0.09360000
   148  H          0.10270000       0.29610000       0.40640000
   149  C          0.38215000       0.95086000       0.43119000
   150  C          0.61785000       0.45086000       0.06881000
   151  C          0.61785000       0.04914000       0.56881000
   152  C          0.38215000       0.54914000       0.93119000
   153  C          0.39135000       0.22376000       0.13631000
   154  C          0.60865000       0.72376000       0.36369000
   155  C          0.60865000       0.77624000       0.86369000
   156  C          0.39135000       0.27624000       0.63631000
   157  H          0.39130000       0.28640000       0.17250000
   158  H          0.60870000       0.78640000       0.32750000
   159  H          0.60870000       0.71360000       0.82750000
   160  H          0.39130000       0.21360000       0.67250000
   161  C          0.43734000       0.10436000       0.97711000
   162  C          0.56266000       0.60436000       0.52289000
   163  C          0.56266000       0.89564000       0.02289000
   164  C          0.43734000       0.39564000       0.47711000
   165  H          0.46840000       0.08600000       0.90540000
   166  H          0.53160000       0.58600000       0.59460000
   167  H          0.53160000       0.91400000       0.09460000
   168  H          0.46840000       0.41400000       0.40540000
   169  H          0.07730000       0.90850000       0.83120000
   170  H          0.92270000       0.40850000       0.66880000
   171  H          0.92270000       0.09150000       0.16880000
   172  H          0.07730000       0.59150000       0.33120000
   173  H          0.14550000       0.72890000       0.17211000
   174  H          0.85450000       0.22890000       0.32789000
   175  H          0.85450000       0.27110000       0.82789000
   176  H          0.14550000       0.77110000       0.67211000
   177  H          0.24750000       0.81670000       0.38212000
   178  H          0.75250000       0.31670000       0.11788000
   179  H          0.75250000       0.18330000       0.61788000
   180  H          0.24750000       0.68330000       0.88212000
   181  O          0.06513000       0.97136000       0.66695000
   182  O          0.93487000       0.47136000       0.83305000
   183  O          0.93487000       0.02864000       0.33305000
   184  O          0.06513000       0.52864000       0.16695000
   185  C         -0.00567000       0.98986000       0.58647000
   186  C          0.00567000       0.48986000       0.91353000
   187  C          0.00567000       0.01014000       0.41353000
   188  C         -0.00567000       0.51014000       0.08647000
   189  C          0.95994000       0.07565000       0.66318000
   190  C          0.04006000       0.57565000       0.83682000
   191  C          0.04006000       0.92435000       0.33682000
   192  C          0.95994000       0.42435000       0.16318000
   193  H          0.95470000       0.06060000       0.76910000
   194  H          0.04530000       0.56060000       0.73090000
   195  H          0.04530000       0.93940000       0.23090000
   196  H          0.95470000       0.43940000       0.26910000
   197  H          0.91350000       0.08850000       0.61010000
   198  H          0.08650000       0.58850000       0.88990000
   199  H          0.08650000       0.91150000       0.38990000
   200  H          0.91350000       0.41150000       0.11010000
   201  H          0.98990000       0.13100000       0.65810000
   202  H          0.01010000       0.63100000       0.84190000
   203  H          0.01010000       0.86900000       0.34190000
   204  H          0.98990000       0.36900000       0.15810000
   205  C          0.95194000       0.89785000       0.60658000
   206  C          0.04806000       0.39785000       0.89342000
   207  C          0.04806000       0.10215000       0.39342000
   208  C          0.95194000       0.60215000       0.10658000
   209  H          0.97730000       0.84440000       0.56830000
   210  H          0.02270000       0.34440000       0.93170000
   211  H          0.02270000       0.15560000       0.43170000
   212  H          0.97730000       0.65560000       0.06830000
   213  H          0.90550000       0.90300000       0.54990000
   214  H          0.09450000       0.40300000       0.95010000
   215  H          0.09450000       0.09700000       0.45010000
   216  H          0.90550000       0.59700000       0.04990000
   217  H          0.94640000       0.88840000       0.71390000
   218  H          0.05360000       0.38840000       0.78610000
   219  H          0.05360000       0.11160000       0.28610000
   220  H          0.94640000       0.61160000       0.21390000
   221  H          0.08360000       0.02470000       0.68113000
   222  H          0.91640000       0.52470000       0.81887000
   223  H          0.91640000       0.97530000       0.31887000
   224  H          0.08360000       0.47530000       0.18113000
   225  H          0.91760000       0.97530000       0.31913000
   226  H          0.08240000       0.47530000       0.18087000
   227  H          0.08240000       0.02470000       0.68087000
   228  H          0.91760000       0.52470000       0.81913000
