data_UXASOE
_symmetry_space_group_name_H-M    'P1'
_symmetry_Int_Tables_number       1
loop_
_symmetry_equiv_pos_site_id
_symmetry_equiv_pos_as_xyz
1 x,y,z
_cell_length_a                   4.34342
_cell_length_b                   31.314111
_cell_length_c                   14.13774
_cell_angle_alpha                90.0
_cell_angle_beta                 90.4973
_cell_angle_gamma                90.0
loop_
_atom_site_label
_atom_site_type_symbol
_atom_site_fract_x
_atom_site_fract_y
_atom_site_fract_z
     1  I          0.52791600       0.56676200       0.57453200
     2  I          0.47208400       0.06676200       0.92546800
     3  I          0.47208400       0.43323800       0.42546800
     4  I          0.52791600       0.93323800       0.07453200
     5  I          0.39218600       0.66844200       0.21378200
     6  I          0.60781400       0.16844200       0.28621800
     7  I          0.60781400       0.33155800       0.78621800
     8  I          0.39218600       0.83155800       0.71378200
     9  I          0.83029400       0.73281200       0.58256200
    10  I          0.16970600       0.23281200       0.91743800
    11  I          0.16970600       0.26718800       0.41743800
    12  I          0.83029400       0.76718800       0.08256200
    13  F          0.01536000       0.72668800       0.36366170
    14  F         -0.01536000       0.22668800       0.13633830
    15  F         -0.01536000       0.27331200       0.63633830
    16  F          0.01536000       0.77331200       0.86366170
    17  F          0.13266000       0.64633800       0.64228160
    18  F          0.86734000       0.14633800       0.85771840
    19  F          0.86734000       0.35366200       0.35771840
    20  F          0.13266000       0.85366200       0.14228160
    21  F          0.59086000       0.59964900       0.36251170
    22  F          0.40914000       0.09964900       0.13748830
    23  F          0.40914000       0.40035100       0.63748830
    24  F          0.59086000       0.90035100       0.86251170
    25  C          0.06668000       0.68694130       0.50433000
    26  C          0.93332000       0.18694130      -0.00433000
    27  C          0.93332000       0.31305870       0.49567000
    28  C          0.06668000       0.81305870       0.00433000
    29  C          0.41229000       0.62815130       0.40863000
    30  C          0.58771000       0.12815130       0.09137000
    31  C          0.58771000       0.37184870       0.59137000
    32  C          0.41229000       0.87184870       0.90863000
    33  C          0.29939000       0.66283130       0.35883000
    34  C          0.70061000       0.16283130       0.14117000
    35  C          0.70061000       0.33716870       0.64117000
    36  C          0.29939000       0.83716870       0.85883000
    37  C          0.18479000       0.65115130       0.54923000
    38  C          0.81521000       0.15115130       0.95077000
    39  C          0.81521000       0.34884870       0.45077000
    40  C          0.18479000       0.84884870       0.04923000
    41  C          0.12529000       0.69207130       0.40903000
    42  C          0.87471000       0.19207130       0.09097000
    43  C          0.87471000       0.30792870       0.59097000
    44  C          0.12529000       0.80792870       0.90903000
    45  C          0.35669000       0.62071130       0.50353000
    46  C          0.64331000       0.12071130      -0.00353000
    47  C          0.64331000       0.37928870       0.49647000
    48  C          0.35669000       0.87928870       0.00353000
    49  O          0.82968000       0.44523110       0.03002000
    50  O          0.17032000       0.94523110       0.46998000
    51  O          0.17032000       0.55476890       0.96998000
    52  O          0.82968000       0.05476890       0.53002000
    53  N          0.15118000       0.40081110       0.94972000
    54  N          0.84882000       0.90081110       0.55028000
    55  N          0.84882000       0.59918890       0.05028000
    56  N          0.15118000       0.09918890       0.44972000
    57  H          0.21672700       0.39499400       0.89243000
    58  H          0.78327300       0.89499400       0.60757000
    59  H          0.78327300       0.60500600       0.10757000
    60  H          0.21672700       0.10500600       0.39243000
    61  N          0.45308000       0.34415120      -0.00928000
    62  N          0.54692000       0.84415120       0.50928000
    63  N          0.54692000       0.65584880       0.00928000
    64  N          0.45308000       0.15584880       0.49072000
    65  N          0.72079000       0.50283120       0.70162000
    66  N          0.27921000       0.00283120       0.79838000
    67  N          0.27921000       0.49716880       0.29838000
    68  N          0.72079000      -0.00283120       0.20162000
    69  C          0.27079000       0.37502130       0.02293000
    70  C          0.72921000       0.87502130       0.47707000
    71  C          0.72921000       0.62497870       0.97707000
    72  C          0.27079000       0.12497870       0.52293000
    73  C          0.87329000       0.45589130       0.86463000
    74  C          0.12671000       0.95589130       0.63537000
    75  C          0.12671000       0.54410870       0.13537000
    76  C          0.87329000       0.04410870       0.36463000
    77  C          0.94601000       0.43372130       0.95653000
    78  C          0.05399000       0.93372130       0.54347000
    79  C          0.05399000       0.56627870       0.04347000
    80  C          0.94601000       0.06627870       0.45653000
    81  C          0.53921000       0.32124160       0.15103000
    82  C          0.46079000       0.82124160       0.34897000
    83  C          0.46079000       0.67875840       0.84897000
    84  C          0.53921000       0.17875840       0.65103000
    85  H          0.63467000       0.30188900       0.19386100
    86  H          0.36533000       0.80188900       0.30613900
    87  H          0.36533000       0.69811100       0.80613900
    88  H          0.63467000       0.19811100       0.69386100
    89  C          0.21231000       0.38094150       0.11843000
    90  C          0.78769000       0.88094150       0.38157000
    91  C          0.78769000       0.61905850       0.88157000
    92  C          0.21231000       0.11905850       0.61843000
    93  H          0.08116200       0.40329100       0.13906400
    94  H          0.91883800       0.90329100       0.36093600
    95  H          0.91883800       0.59670900       0.86093600
    96  H          0.08116200       0.09670900       0.63906400
    97  C          0.58441000       0.31814150       0.05483000
    98  C          0.41559000       0.81814150       0.44517000
    99  C          0.41559000       0.68185850       0.94517000
   100  C          0.58441000       0.18185850       0.55483000
   101  H          0.71675700       0.29625200       0.03250800
   102  H          0.28324300       0.79625200       0.46749200
   103  H          0.28324300       0.70374800       0.96749200
   104  H          0.71675700       0.20374800       0.53250800
   105  C         -0.01088900       0.44530150       0.77723000
   106  C          0.01088900       0.94530150       0.72277000
   107  C          0.01088900       0.55469850       0.22277000
   108  C         -0.01088900       0.05469850       0.27723000
   109  H          0.12322200       0.42151500       0.77103600
   110  H          0.87677800       0.92151500       0.72896400
   111  H          0.87677800       0.57848500       0.22896400
   112  H          0.12322200       0.07848500       0.27103600
   113  C          0.67501100       0.49065150       0.86803000
   114  C          0.32498900       0.99065150       0.63197000
   115  C          0.32498900       0.50934850       0.13197000
   116  C          0.67501100       0.00934850       0.36803000
   117  H          0.58719700       0.49922600       0.92627300
   118  H          0.41280300      -0.00077400       0.57372700
   119  H          0.41280300       0.50077400       0.07372700
   120  H          0.58719700       0.00077400       0.42627300
   121  C          0.34941000       0.35359160       0.18253000
   122  C          0.65059000       0.85359160       0.31747000
   123  C          0.65059000       0.64640840       0.81747000
   124  C          0.34941000       0.14640840       0.68253000
   125  H          0.31358600       0.35696900       0.24830500
   126  H          0.68641400       0.85696900       0.25169500
   127  H          0.68641400       0.64303100       0.75169500
   128  H          0.31358600       0.14303100       0.74830500
   129  C          0.60671100       0.51258160       0.78603000
   130  C          0.39328900       0.01258160       0.71397000
   131  C          0.39328900       0.48741840       0.21397000
   132  C          0.60671100       0.98741840       0.28603000
   133  H          0.46967200       0.53614300       0.78991200
   134  H          0.53032800       0.03614300       0.71008800
   135  H          0.53032800       0.46385700       0.21008800
   136  H          0.46967200       0.96385700       0.28991200
   137  C          0.90991100       0.46938150       0.69803000
   138  C          0.09008900       0.96938150       0.80197000
   139  C          0.09008900       0.53061850       0.30197000
   140  C          0.90991100       0.03061850       0.19803000
   141  H         -0.00555400       0.46164800       0.63862800
   142  H          0.00555400       0.96164800       0.86137200
   143  H          0.00555400       0.53835200       0.36137200
   144  H         -0.00555400       0.03835200       0.13862800
