data_UXASAQ
_symmetry_space_group_name_H-M    'P1'
_symmetry_Int_Tables_number       1
loop_
_symmetry_equiv_pos_site_id
_symmetry_equiv_pos_as_xyz
1 x,y,z
_cell_length_a                   4.81433
_cell_length_b                   12.38186
_cell_length_c                   17.41328
_cell_angle_alpha                75.8722
_cell_angle_beta                 89.9052
_cell_angle_gamma                82.5152
loop_
_atom_site_label
_atom_site_type_symbol
_atom_site_fract_x
_atom_site_fract_y
_atom_site_fract_z
     1  C          0.04141600       0.39286000       0.92444000
     2  C          0.95858400       0.60714000       0.07556000
     3  N          0.91691500       0.30335000       0.92004000
     4  N          0.08308500       0.69665000       0.07996000
     5  C         -0.00028100       0.20657000       0.97255000
     6  C          0.00028100       0.79343000       0.02745000
     7  H          0.91230000       0.14270000       0.97030000
     8  H          0.08770000       0.85730000       0.02970000
     9  C          0.20741700       0.19436000       0.03025000
    10  C          0.79258300       0.80564000       0.96975000
    11  C          0.32811700       0.28776000       0.03544000
    12  C          0.67188300       0.71224000       0.96456000
    13  H          0.46530000       0.28290000       0.07560000
    14  H          0.53470000       0.71710000       0.92440000
    15  C          0.24471700       0.38836000       0.98065000
    16  C          0.75528300       0.61164000       0.01935000
    17  H          0.32730000       0.45350000       0.98200000
    18  H          0.67270000       0.54650000       0.01800000
    19  I          0.33543140       0.03770400       0.10700300
    20  I          0.66456860       0.96229600       0.89299700
    21  H          0.77912000       0.49580000       0.87960000
    22  H          0.22088000       0.50420000       0.12040000
    23  N          0.94551300       0.49125000       0.86534000
    24  N          0.05448700       0.50875000       0.13466000
    25  C          0.09911600       0.57766000       0.83515000
    26  C          0.90088400       0.42234000       0.16485000
    27  O          0.33551100       0.57754000       0.85934000
    28  O          0.66448900       0.42246000       0.14066000
    29  C          0.95551600       0.67296000       0.77234000
    30  C          0.04448400       0.32704000       0.22766000
    31  C          0.74591700       0.66216000       0.72045000
    32  C          0.25408300       0.33784000       0.27955000
    33  H          0.68380000       0.59080000       0.72650000
    34  H          0.31620000       0.40920000       0.27350000
    35  N          0.62941600       0.74756000       0.66254000
    36  N          0.37058400       0.25244000       0.33746000
    37  C          0.71420000       0.84817000       0.65575000
    38  C          0.28580000       0.15183000       0.34425000
    39  H          0.62680000       0.91000000       0.61580000
    40  H          0.37320000       0.09000000       0.38420000
    41  C          0.92120000       0.86617000       0.70366000
    42  C          0.07880000       0.13383000       0.29634000
    43  H         -0.02160000       0.93840000       0.69590000
    44  H          0.02160000       0.06160000       0.30410000
    45  C          0.04531800       0.77596000       0.76395000
    46  C          0.95468200       0.22404000       0.23605000
    47  H          0.18820000       0.78580000       0.79820000
    48  H          0.81180000       0.21420000       0.20180000
    49  C          0.96381700       0.27696000       0.56174000
    50  C          0.03618300       0.72304000       0.43826000
    51  C          0.95911900       0.37387000       0.58855000
    52  C          0.04088100       0.62613000       0.41145000
    53  C          0.13721900       0.37636000       0.65035000
    54  C          0.86278100       0.62364000       0.34965000
    55  C          0.31471700       0.28366000       0.68884000
    56  C          0.68528300       0.71634000       0.31116000
    57  C          0.31991800       0.18726000       0.66215000
    58  C          0.68008200       0.81274000       0.33785000
    59  C          0.14641700       0.18356000       0.60015000
    60  C          0.85358300       0.81644000       0.39985000
    61  I          0.71025110       0.27226400       0.46516300
    62  I          0.28974890       0.72773600       0.53483700
    63  F          0.78561300       0.46604000       0.55544000
    64  F          0.21438700       0.53396000       0.44456000
    65  F          0.12301300       0.47174000       0.67434000
    66  F          0.87698700       0.52826000       0.32566000
    67  I          0.56726100       0.28886400       0.78559300
    68  I          0.43273900       0.71113600       0.21440700
    69  F          0.49291400       0.09324000       0.69724000
    70  F          0.50708600       0.90676000       0.30276000
    71  F          0.16191300       0.08784000       0.57683000
    72  F          0.83808700       0.91216000       0.42317000
