data_UXATAR
_symmetry_space_group_name_H-M    'P1'
_symmetry_Int_Tables_number       1
loop_
_symmetry_equiv_pos_site_id
_symmetry_equiv_pos_as_xyz
1 x,y,z
_cell_length_a                   10.80573
_cell_length_b                   4.185701
_cell_length_c                   42.00029
_cell_angle_alpha                90.0
_cell_angle_beta                 90.4342
_cell_angle_gamma                90.0
loop_
_atom_site_label
_atom_site_type_symbol
_atom_site_fract_x
_atom_site_fract_y
_atom_site_fract_z
     1  I          0.39011200       0.78377700       0.89343200
     2  I          0.10988800       0.28377700       0.60656800
     3  I          0.60988800       0.21622300       0.10656800
     4  I          0.89011200       0.71622300       0.39343200
     5  I          0.55302200       0.22727300       0.73843200
     6  I          0.94697800       0.72727300       0.76156800
     7  I          0.44697800       0.77272700       0.26156800
     8  I          0.05302200       0.27272700       0.23843200
     9  F          0.27153140       0.62887000       0.82513300
    10  F          0.22846860       0.12887000       0.67486700
    11  F          0.72846860       0.37113000       0.17486700
    12  F          0.77153140       0.87113000       0.32513300
    13  F          0.33061140       0.80537000       0.76648300
    14  F          0.16938860       0.30537000       0.73351700
    15  F          0.66938860       0.19463000       0.23351700
    16  F          0.83061140       0.69463000       0.26648300
    17  F          0.67650140       0.36913000       0.80691300
    18  F          0.82349860       0.86913000       0.69308700
    19  F          0.32349860       0.63087000       0.19308700
    20  F          0.17650140       0.13087000       0.30691300
    21  F          0.61457140       0.20313000       0.86584300
    22  F          0.88542860       0.70313000       0.63415700
    23  F          0.38542860       0.79687000       0.13415700
    24  F          0.11457140       0.29687000       0.36584300
    25  C          0.37192000       0.81515000       0.82099500
    26  C          0.12808000       0.31515000       0.67900500
    27  C          0.62808000       0.18485000       0.17900500
    28  C          0.87192000       0.68485000       0.32099500
    29  C          0.44142000       0.91175000       0.84728500
    30  C          0.05858000       0.41175000       0.65271500
    31  C          0.55858000       0.08825000       0.15271500
    32  C          0.94142000       0.58825000       0.34728500
    33  C          0.40332000       0.90355000       0.79053500
    34  C          0.09668000       0.40355000       0.70946500
    35  C          0.59668000       0.09645000       0.20946500
    36  C          0.90332000       0.59645000       0.29053500
    37  C          0.57622000       0.18375000       0.81088500
    38  C          0.92378000       0.68375000       0.68911500
    39  C          0.42378000       0.81625000       0.18911500
    40  C          0.07622000       0.31625000       0.31088500
    41  C          0.50682000       0.08865000       0.78463500
    42  C         -0.00682000       0.58865000       0.71536500
    43  C          0.49318000       0.91135000       0.21536500
    44  C          0.00682000       0.41135000       0.28463500
    45  C          0.54402000       0.09975000       0.84137500
    46  C          0.95598000       0.59975000       0.65862500
    47  C          0.45598000       0.90025000       0.15862500
    48  C          0.04402000       0.40025000       0.34137500
    49  Br         0.11624300       0.27496500       0.45047200
    50  Br         0.38375700       0.77496500       0.04952800
    51  Br         0.88375700       0.72503500       0.54952800
    52  Br         0.61624300       0.22503500       0.95047200
    53  O          0.52754190       0.52475000       0.55501400
    54  O          0.97245810       0.02475000       0.94498600
    55  O          0.47245810       0.47525000       0.44498600
    56  O          0.02754190      -0.02475000       0.05501400
    57  N          0.21156190       0.09295000       0.54380400
    58  N          0.28843810       0.59295000       0.95619600
    59  N          0.78843810       0.90705000       0.45619600
    60  N          0.71156190       0.40705000       0.04380400
    61  N          0.56532000       0.43515000       0.67311400
    62  N          0.93468000       0.93515000       0.82688600
    63  N          0.43468000       0.56485000       0.32688600
    64  N          0.06532000       0.06485000       0.17311400
    65  N          0.36437190       0.82254000       0.57038400
    66  N          0.13562810       0.32254000       0.92961600
    67  N          0.63562810       0.17746000       0.42961600
    68  N          0.86437190       0.67746000       0.07038400
    69  H          0.32645100       0.89548800       0.58736500
    70  H          0.17354900       0.39548800       0.91263500
    71  H          0.67354900       0.10451200       0.41263500
    72  H          0.82645100       0.60451200       0.08736500
    73  C          0.19852000       0.11915000       0.48729500
    74  C          0.30148000       0.61915000       0.01270500
    75  C          0.80148000       0.88085000       0.51270500
    76  C          0.69852000       0.38085000       0.98729500
    77  C          0.49562000       0.57655000       0.61051500
    78  C          0.00438000       0.07655000       0.88948500
    79  C          0.50438000       0.42345000       0.38948500
    80  C         -0.00438000       0.92345000       0.11051500
    81  C          0.60132000       0.40006000       0.61708500
    82  C          0.89868000       0.90006000       0.88291500
    83  C          0.39868000       0.59994000       0.38291500
    84  C          0.10132000       0.09994000       0.11708500
    85  H          0.65217000       0.32541300       0.60029000
    86  H          0.84783000       0.82541300       0.89971000
    87  H          0.34783000       0.67458700       0.39971000
    88  H          0.15217000       0.17458700       0.10029000
    89  C          0.31262000       0.91365000       0.54086500
    90  C          0.18738000       0.41365000       0.95913500
    91  C          0.68738000       0.08635000       0.45913500
    92  C          0.81262000       0.58635000       0.04086500
    93  C          0.63172000       0.33396000       0.64850600
    94  C          0.86828000       0.83396000       0.85149400
    95  C          0.36828000       0.66604000       0.35149400
    96  C          0.13172000       0.16604000       0.14850600
    97  H          0.70367200       0.21003700       0.65270300
    98  H          0.79632800       0.71003700       0.84729700
    99  H          0.29632800       0.78996300       0.34729700
   100  H          0.20367200       0.28996300       0.15270300
   101  C          0.15463000       0.19406000       0.51713600
   102  C          0.34537000       0.69406000       0.98286400
   103  C          0.84537000       0.80594000       0.48286400
   104  C          0.65463000       0.30594000       0.01713600
   105  H          0.08194600       0.32052300       0.51885500
   106  H          0.41805400       0.82052300       0.98114500
   107  H          0.91805400       0.67947700       0.48114500
   108  H          0.58194600       0.17947700       0.01885500
   109  C          0.46482000       0.63765000       0.57600500
   110  C          0.03518000       0.13765000       0.92399500
   111  C          0.53518000       0.36235000       0.42399500
   112  C          0.96482000       0.86235000       0.07600500
   113  C          0.30272000       0.93435000       0.48440500
   114  C          0.19728000       0.43435000       0.01559500
   115  C          0.69728000       0.06565000       0.51559500
   116  C          0.80272000       0.56565000       0.98440500
   117  H          0.33390500       0.88145000       0.46398200
   118  H          0.16609500       0.38145000       0.03601800
   119  H          0.66609500       0.11855000       0.53601800
   120  H          0.83390500       0.61855000       0.96398200
   121  C          0.36142000       0.82675000       0.51158500
   122  C          0.13858000       0.32675000       0.98841500
   123  C          0.63858000       0.17325000       0.48841500
   124  C          0.86142000       0.67325000       0.01158500
   125  H          0.43330300       0.69673900       0.51035600
   126  H          0.06669700       0.19673900       0.98964400
   127  H          0.56669700       0.30326100       0.48964400
   128  H          0.93330300       0.80326100       0.01035600
   129  C          0.42632000       0.68515000       0.63600500
   130  C          0.07368000       0.18515000       0.86399500
   131  C          0.57368000       0.31485000       0.36399500
   132  C          0.92632000       0.81485000       0.13600500
   133  H          0.35395300       0.80963500       0.63253900
   134  H          0.14604700       0.30963500       0.86746100
   135  H          0.64604700       0.19036500       0.36746100
   136  H          0.85395300       0.69036500       0.13253900
   137  C          0.46472000       0.60816000       0.66661500
   138  C          0.03528000       0.10816000       0.83338500
   139  C          0.53528000       0.39184000       0.33338500
   140  C          0.96472000       0.89184000       0.16661500
   141  H          0.41668400       0.68290800       0.68392800
   142  H          0.08331600       0.18290800       0.81607200
   143  H          0.58331600       0.31709200       0.31607200
   144  H          0.91668400       0.81709200       0.18392800
