data_UXAXEX
_symmetry_space_group_name_H-M    'P1'
_symmetry_Int_Tables_number       1
loop_
_symmetry_equiv_pos_site_id
_symmetry_equiv_pos_as_xyz
1 x,y,z
_cell_length_a                   10.1952
_cell_length_b                   12.5723
_cell_length_c                   13.1203
_cell_angle_alpha                89.8114
_cell_angle_beta                 68.3093
_cell_angle_gamma                72.8424
loop_
_atom_site_label
_atom_site_type_symbol
_atom_site_fract_x
_atom_site_fract_y
_atom_site_fract_z
     1  I          0.88708800       0.62803718       0.45986317
     2  I          0.11291200       0.37196282       0.54013683
     3  O          0.69127000       0.71542000       0.52192000
     4  O          0.30873000       0.28458000       0.47808000
     5  O          0.95307000       0.69922000       0.54012000
     6  O          0.04693000       0.30078000       0.45988000
     7  O          0.38563000       0.51812000       0.23782000
     8  O          0.61437000       0.48188000       0.76218000
     9  H          0.41450000       0.50770000       0.29030000
    10  H          0.58550000       0.49230000       0.70970000
    11  O          0.17173000       0.52182000       0.36942000
    12  O          0.82827000       0.47818000       0.63058000
    13  C          0.94056000       0.70833000       0.31363000
    14  C          0.05944000       0.29167000       0.68637000
    15  C          0.06354000       0.66403000       0.21293000
    16  C          0.93646000       0.33597000       0.78707000
    17  C          0.17694000       0.54503000       0.18603000
    18  C          0.82306000       0.45497000       0.81397000
    19  C          0.29854000       0.52493000       0.07003000
    20  C          0.70146000       0.47507000       0.92997000
    21  H          0.35020000       0.58080000       0.06240000
    22  H          0.64980000       0.41920000       0.93760000
    23  H          0.25350000       0.53130000       0.01500000
    24  H          0.74650000       0.46870000       0.98500000
    25  H          0.36990000       0.44960000       0.05830000
    26  H          0.63010000       0.55040000       0.94170000
    27  C          0.97556000       0.84423000       0.14813000
    28  C          0.02444000       0.15577000       0.85187000
    29  H          0.98920000       0.89050000       0.09020000
    30  H          0.01080000       0.10950000       0.90980000
    31  C          0.24624000       0.52703000       0.27303000
    32  C          0.75376000       0.47297000       0.72697000
    33  C          0.07554000       0.73693000       0.13143000
    34  C          0.92446000       0.26307000       0.86857000
    35  H          0.15540000       0.71180000       0.06150000
    36  H          0.84460000       0.28820000       0.93850000
    37  C          0.84076000       0.81533000       0.33143000
    38  C          0.15924000       0.18467000       0.66857000
    39  H          0.76100000       0.84150000       0.40130000
    40  H          0.23900000       0.15850000       0.59870000
    41  C          0.09754000       0.45683000       0.19393000
    42  C          0.90246000       0.54317000       0.80607000
    43  H          0.17110000       0.38170000       0.17300000
    44  H          0.82890000       0.61830000       0.82700000
    45  H          0.04450000       0.46990000       0.14380000
    46  H          0.95550000       0.53010000       0.85620000
    47  H          0.02640000       0.46240000       0.26980000
    48  H          0.97360000       0.53760000       0.73020000
    49  C          0.85626000       0.88453000       0.24853000
    50  C          0.14374000       0.11547000       0.75147000
    51  H          0.78720000       0.95750000       0.25980000
    52  H          0.21280000       0.04250000       0.74020000
    53  I          0.55217200       0.61177418       0.42315518
    54  I          0.44782800       0.38822582       0.57684482
    55  C          0.33004000       0.87093000       0.38173000
    56  C          0.66996000       0.12907000       0.61827000
    57  O          0.75063000       0.53422000       0.37392000
    58  O          0.24937000       0.46578000       0.62608000
    59  O          0.50343000       0.49432000       0.38532000
    60  O          0.49657000       0.50568000       0.61468000
    61  C          0.57434000       0.70263000       0.28443000
    62  C          0.42566000       0.29737000       0.71557000
    63  C          0.70384000       0.65053000       0.19373000
    64  C          0.29616000       0.34947000       0.80627000
    65  H          0.76800000       0.57950000       0.19700000
    66  H          0.23200000       0.42050000       0.80300000
    67  O          0.29693000       0.69682000       0.44662000
    68  O          0.70307000       0.30318000       0.55338000
    69  C          0.23824000       0.79323000       0.43043000
    70  C          0.76176000       0.20677000       0.56957000
    71  O          0.09733000       0.83272000       0.45312000
    72  O          0.90267000       0.16728000       0.54688000
    73  H          0.05700000       0.78380000       0.47880000
    74  H          0.94300000       0.21620000       0.52120000
    75  C          0.73984000       0.70234000       0.09763000
    76  C          0.26016000       0.29766000       0.90237000
    77  H          0.82930000       0.66840000       0.03540000
    78  H          0.17070000       0.33160000       0.96460000
    79  C          0.64184000       0.80464000       0.09513000
    80  C          0.35816000       0.19536000       0.90487000
    81  H          0.66420000       0.84130000       0.03040000
    82  H          0.33580000       0.15870000       0.96960000
    83  C          0.37224000       0.90753000       0.47663000
    84  C          0.62776000       0.09247000       0.52337000
    85  H          0.28120000       0.94620000       0.54040000
    86  H          0.71880000       0.05380000       0.45960000
    87  H          0.43140000       0.95820000       0.45030000
    88  H          0.56860000       0.04180000       0.54970000
    89  H          0.43020000       0.84110000       0.49820000
    90  H          0.56980000       0.15890000       0.50180000
    91  C          0.47264000       0.80683000       0.28413000
    92  C          0.52736000       0.19317000       0.71587000
    93  C          0.51214000       0.85383000       0.18543000
    94  C          0.48786000       0.14617000       0.81457000
    95  H          0.44640000       0.92310000       0.18010000
    96  H          0.55360000       0.07690000       0.81990000
    97  C          0.23405000       0.97683000       0.35514000
    98  C          0.76595000       0.02317000       0.64486000
    99  H          0.20960000       0.95770000       0.29340000
   100  H          0.79040000       0.04230000       0.70660000
   101  H          0.28880000       0.03100000       0.33470000
   102  H          0.71120000       0.96900000       0.66530000
   103  H          0.14200000       0.00970000       0.42010000
   104  H          0.85800000      -0.00970000       0.57990000
   105  F          0.04733000       0.89933190       0.72452000
   106  F          0.95267000       0.10066810       0.27548000
   107  F          0.00654000       0.89382000       0.89552000
   108  F          0.99346000       0.10618000       0.10448000
   109  O          0.15403000       0.68412000       0.67962000
   110  O          0.84597000       0.31588000       0.32038000
   111  H          0.19940000       0.61490000       0.66750000
   112  H          0.80060000       0.38510000       0.33250000
   113  O          0.12493000       0.66582000       0.85782000
   114  O          0.87507000       0.33418000       0.14218000
   115  C          0.10974000       0.71803000       0.78473000
   116  C          0.89026000       0.28197000       0.21527000
   117  F          0.86847000       0.84452000       0.82842000
   118  F          0.13153000       0.15548000       0.17158000
   119  C          0.00895000       0.84023000       0.80773000
   120  C          0.99105000       0.15977000       0.19227000
   121  F          0.52323000       0.09272000       0.07762000
   122  F          0.47677000       0.90728000       0.92238000
   123  F          0.57953000       0.24342000       0.04952000
   124  F          0.42047000       0.75658000       0.95048000
   125  F          0.73963000       0.09373000       0.05782000
   126  F          0.26037000       0.90627000       0.94218000
   127  O          0.40393000       0.23123000       0.26883000
   128  O          0.59607000       0.76877000       0.73117000
   129  C          0.54364000       0.18453000       0.22613000
   130  C          0.45636000       0.81547000       0.77387000
   131  O          0.63214000       0.16733000       0.27023000
   132  O          0.36786000       0.83267000       0.72977000
   133  C          0.59915000       0.15274000       0.10103000
   134  C          0.40085000       0.84726000       0.89897000
   135  H          0.36770000       0.24550000       0.33960000
   136  H          0.63230000       0.75450000       0.66040000
