data_UXAZOJ
_symmetry_space_group_name_H-M    'P1'
_symmetry_Int_Tables_number       1
loop_
_symmetry_equiv_pos_site_id
_symmetry_equiv_pos_as_xyz
1 x,y,z
_cell_length_a                   5.61447
_cell_length_b                   10.097313
_cell_length_c                   11.488918
_cell_angle_alpha                79.04112
_cell_angle_beta                 80.18212
_cell_angle_gamma                86.4281
loop_
_atom_site_label
_atom_site_type_symbol
_atom_site_fract_x
_atom_site_fract_y
_atom_site_fract_z
     1  S          0.26283100       0.81874600       0.52197500
     2  S          0.73716900       0.18125400       0.47802500
     3  O          0.26703000       0.88392170       0.39289130
     4  O          0.73297000       0.11607830       0.60710870
     5  C          0.34735000       0.64793000       0.52182000
     6  C          0.65265000       0.35207000       0.47818000
     7  H          0.51600000       0.64060000       0.48960000
     8  H          0.48400000       0.35940000       0.51040000
     9  H          0.25360000       0.61180000       0.47330000
    10  H          0.74640000       0.38820000       0.52670000
    11  H          0.31850000       0.59800000       0.60260000
    12  H          0.68150000       0.40200000       0.39740000
    13  C          0.95585000       0.79763000       0.58452000
    14  C          0.04415000       0.20237000       0.41548000
    15  H          0.87940000       0.88400000       0.59170000
    16  H          0.12060000       0.11600000       0.40830000
    17  H          0.94330000       0.74130000       0.66260000
    18  H          0.05670000       0.25870000       0.33740000
    19  H          0.87740000       0.75580000       0.53340000
    20  H          0.12260000       0.24420000       0.46660000
    21  N          0.27843000       0.84617190       0.12657150
    22  N          0.72157000       0.15382810       0.87342850
    23  N          0.70644000       0.95442000       0.25287170
    24  N          0.29356000       0.04558000       0.74712830
    25  N          0.85414000       0.72842000       0.28415170
    26  N          0.14586000       0.27158000       0.71584830
    27  N          0.25063000       0.71412000       0.17620160
    28  N          0.74937000       0.28588000       0.82379840
    29  C          0.68454000       0.20323000       0.17902000
    30  C          0.31546000       0.79677000       0.82098000
    31  H          0.52690000       0.21570000       0.21700000
    32  H          0.47310000       0.78430000       0.78300000
    33  C          0.87264000       0.85642000       0.23760180
    34  C          0.12736000       0.14358000       0.76239820
    35  C          0.08564000       0.91562000       0.15916170
    36  C          0.91436000       0.08438000       0.84083830
    37  N          0.42174000       0.61882000       0.15712000
    38  N          0.57826000       0.38118000       0.84288000
    39  C          0.15834000       0.16522000       0.06090190
    40  C          0.84166000       0.83478000       0.93909810
    41  H          0.31400000       0.15260000       0.02060000
    42  H          0.68600000       0.84740000       0.97940000
    43  N          0.10384000       0.52692000       0.27672000
    44  N          0.89616000       0.47308000       0.72328000
    45  C          0.03054000       0.05742000       0.13041180
    46  C          0.96946000       0.94258000       0.86958820
    47  C          0.79604000       0.07742000       0.18874180
    48  C          0.20396000       0.92258000       0.81125820
    49  C          0.05434000       0.65772000       0.24962000
    50  C          0.94566000       0.34228000       0.75038000
    51  C          0.04975000       0.29163000       0.05282000
    52  C          0.95025000       0.70837000       0.94718000
    53  H          0.13420000       0.36560000       0.00770000
    54  H          0.86580000       0.63440000      -0.00770000
    55  C          0.81595000       0.31033000       0.11072000
    56  C          0.18405000       0.68967000       0.88928000
    57  H          0.74590000       0.39680000       0.10340000
    58  H          0.25410000       0.60320000       0.89660000
    59  N          0.32875000       0.50752000       0.21862000
    60  N          0.67125000       0.49248000       0.78138000
    61  H          0.55650000       0.94530000       0.30020000
    62  H          0.44350000       0.05470000       0.69980000
