data_UYABII
_symmetry_space_group_name_H-M    'P1'
_symmetry_Int_Tables_number       1
loop_
_symmetry_equiv_pos_site_id
_symmetry_equiv_pos_as_xyz
1 x,y,z
_cell_length_a                   11.34953
_cell_length_b                   14.83214
_cell_length_c                   18.25494
_cell_angle_alpha                67.4492
_cell_angle_beta                 77.9422
_cell_angle_gamma                80.4502
loop_
_atom_site_label
_atom_site_type_symbol
_atom_site_fract_x
_atom_site_fract_y
_atom_site_fract_z
     1  I          0.58912200       0.50823200       0.18429200
     2  I          0.41087800       0.49176800       0.81570800
     3  I          0.08661200       0.28825200       0.44783200
     4  I          0.91338800       0.71174800       0.55216800
     5  F          0.41563000       0.36122000       0.17854160
     6  F          0.58437000       0.63878000       0.82145840
     7  F          0.25943000       0.43552000       0.45376160
     8  F          0.74057000       0.56448000       0.54623840
     9  F          0.44713000       0.52322000       0.35035160
    10  F          0.55287000       0.47678000       0.64964840
    11  F          0.22493000       0.27672000       0.27959170
    12  F          0.77507000       0.72328000       0.72040830
    13  C          0.43704000       0.44443000       0.26173000
    14  C          0.56296000       0.55557000       0.73827000
    15  C          0.39454000       0.46193000       0.33243000
    16  C          0.60546000       0.53807000       0.66757000
    17  C          0.23704000       0.35363000       0.36993000
    18  C          0.76296000       0.64637000       0.63007000
    19  C          0.27974000       0.33674000       0.29893000
    20  C          0.72026000       0.66326000       0.70107000
    21  C          0.29624000       0.41644000       0.38573000
    22  C          0.70376000       0.58356000       0.61427000
    23  C          0.37804000       0.38144000       0.24583000
    24  C          0.62196000       0.61856000       0.75417000
    25  I          0.80746200       0.50494200       0.96475800
    26  I          0.19253800       0.49505800       0.03524200
    27  I          0.84448200       0.30093200       0.67171800
    28  I          0.15551800       0.69906800       0.32828200
    29  F          0.65202000       0.35012000       0.95099850
    30  F          0.34798000       0.64988000       0.04900150
    31  F          0.66472000       0.27502000       0.83775830
    32  F          0.33528000       0.72498000       0.16224170
    33  F         -0.00467000       0.45672000       0.68506830
    34  F          0.00467000       0.54328000       0.31493170
    35  F          0.97943000       0.53552000       0.79599820
    36  F          0.02057000       0.46448000       0.20400180
    37  C          0.83024000       0.36364000       0.75797000
    38  C          0.16976000       0.63636000       0.24203000
    39  C          0.74414000       0.33913000       0.82687000
    40  C          0.25586000       0.66087000       0.17313000
    41  C          0.90894000       0.43053000       0.75007000
    42  C          0.09106000       0.56947000       0.24993000
    43  C          0.90124000       0.47093000       0.80747000
    44  C          0.09876000       0.52907000       0.19253000
    45  C          0.81544000       0.44543000       0.87627000
    46  C          0.18456000       0.55457000       0.12373000
    47  C          0.73664000       0.37883000       0.88507000
    48  C          0.26336000       0.62117000       0.11493000
    49  O          0.89297000       0.20783000       0.56092190
    50  O          0.10703000       0.79217000       0.43907810
    51  N          0.82867000       0.14133000       0.56212000
    52  N          0.17133000       0.85867000       0.43788000
    53  C          0.69226000      -0.00183000       0.56583000
    54  C          0.30774000       0.00183000       0.43417000
    55  C          0.39636000       0.71377000       0.56793000
    56  C          0.60364000       0.28623000       0.43207000
    57  C          0.47336000       0.78617000       0.56763000
    58  C          0.52664000       0.21383000       0.43237000
    59  C          0.86146000       0.09624000       0.50803000
    60  C          0.13854000       0.90376000       0.49197000
    61  H          0.92970000       0.11340000       0.46920000
    62  H          0.07030000       0.88660000       0.53080000
    63  C          0.61866000       0.92467000       0.56743000
    64  C          0.38134000       0.07533000       0.43257000
    65  C          0.79586000       0.02564000       0.50953000
    66  C          0.20414000       0.97436000       0.49047000
    67  H          0.82120000      -0.00470000       0.47190000
    68  H          0.17880000       0.00470000       0.52810000
    69  C          0.21666000       0.62546000       0.62303000
    70  C          0.78334000       0.37454000       0.37697000
    71  H          0.14550000       0.61240000       0.65970000
    72  H          0.85450000       0.38760000       0.34030000
    73  C          0.28796000       0.69336000       0.62243000
    74  C          0.71204000       0.30664000       0.37757000
    75  H          0.26380000       0.72580000       0.65850000
    76  H          0.73620000       0.27420000       0.34150000
    77  C          0.55436000       0.83237000       0.49953000
    78  C          0.44564000       0.16763000       0.50047000
    79  H          0.56110000       0.81750000       0.45360000
    80  H          0.43890000       0.18250000       0.54640000
    81  C          0.46706000       0.80957000       0.63583000
    82  C          0.53294000       0.19043000       0.36417000
    83  H          0.41460000       0.77910000       0.68230000
    84  H          0.58540000       0.22090000       0.31770000
    85  C          0.62556000       0.90067000       0.49893000
    86  C          0.37444000       0.09933000       0.50107000
    87  H          0.67860000       0.93110000       0.45260000
    88  H          0.32140000       0.06890000       0.54740000
    89  C          0.43006000       0.66296000       0.51463000
    90  C          0.56994000       0.33704000       0.48537000
    91  H          0.50190000       0.67440000       0.47840000
    92  H          0.49810000       0.32560000       0.52160000
    93  C          0.72726000       0.11694000       0.61743000
    94  C          0.27274000       0.88306000       0.38257000
    95  H          0.70310000       0.14840000       0.65420000
    96  H          0.29690000       0.85160000       0.34580000
    97  C          0.25096000       0.57716000       0.56923000
    98  C          0.74904000       0.42284000       0.43077000
    99  H          0.20270000       0.53230000       0.56920000
   100  H          0.79730000       0.46770000       0.43080000
   101  C          0.66016000       0.04724000       0.61993000
   102  C          0.33984000       0.95276000       0.38007000
   103  H          0.59140000       0.03200000       0.65850000
   104  H          0.40860000       0.96800000       0.34150000
   105  C          0.53756000       0.87727000       0.63483000
   106  C          0.46244000       0.12273000       0.36517000
   107  H          0.53080000       0.89190000       0.68080000
   108  H          0.46920000       0.10810000       0.31920000
   109  C          0.35795000       0.59636000       0.51543000
   110  C          0.64205000       0.40364000       0.48457000
   111  H          0.38140000       0.56390000       0.47930000
   112  H          0.61860000       0.43610000       0.52070000
   113  O          0.79683000       0.57323000       0.08512000
   114  O          0.20317000       0.42677000       0.91488000
   115  N          0.85743000       0.64383000       0.08132000
   116  N          0.14257000       0.35617000       0.91868000
   117  C          0.19344000       0.01593000       0.06462000
   118  C          0.80656000       0.98407000       0.93538000
   119  C          0.90184000       0.74683000       0.14273000
   120  C          0.09816000       0.25317000       0.85727000
   121  H          0.88770000       0.76700000       0.18640000
   122  H          0.11230000       0.23300000       0.81360000
   123  C          0.98764000       0.79083000       0.07583000
   124  C          0.01236000       0.20917000       0.92417000
   125  C          0.26124000       0.09603000       0.05833000
   126  C          0.73876000       0.90397000       0.94167000
   127  C          0.05854000       0.86763000       0.07222000
   128  C          0.94146000       0.13237000       0.92778000
   129  C          0.00194000       0.75833000       0.01113000
   130  C         -0.00194000       0.24167000       0.98887000
   131  H          0.05670000       0.78610000       0.96500000
   132  H          0.94330000       0.21390000       0.03500000
   133  C          0.34244000       0.13874000       0.98867000
   134  C          0.65756000       0.86126000       0.01133000
   135  H          0.35590000       0.11420000       0.94750000
   136  H          0.64410000       0.88580000       0.05250000
   137  C          0.93644000       0.68633000       0.01493000
   138  C          0.06356000       0.31367000       0.98507000
   139  H          0.94670000       0.66650000       0.97120000
   140  H          0.05330000       0.33350000       0.02880000
   141  C          0.24134000       0.95113000       0.02443000
   142  C          0.75866000       0.04887000       0.97557000
   143  H          0.31920000       0.95630000      -0.00480000
   144  H          0.68080000       0.04370000       0.00480000
   145  C          0.24324000       0.13423000       0.11973000
   146  C          0.75676000       0.86577000       0.88027000
   147  H          0.19140000       0.10580000       0.16720000
   148  H          0.80860000       0.89420000       0.83280000
   149  C          0.83804000       0.67414000       0.14483000
   150  C          0.16196000       0.32586000       0.85517000
   151  H          0.78170000       0.64570000       0.18980000
   152  H          0.21830000       0.35430000       0.81020000
   153  C          0.01064000       0.93043000       0.11403000
   154  C          0.98936000       0.06957000       0.88597000
   155  H          0.93360000       0.92360000       0.14440000
   156  H          0.06640000       0.07640000       0.85560000
   157  C          0.38214000       0.25583000       0.04063000
   158  C          0.61786000       0.74417000       0.95937000
   159  H          0.42120000       0.30920000       0.03440000
   160  H          0.57880000       0.69080000       0.96560000
   161  C          0.40374000       0.21703000       0.97977000
   162  C          0.59626000       0.78297000       0.02023000
   163  H          0.45880000       0.24350000       0.93360000
   164  H          0.54120000       0.75650000       0.06640000
   165  C          0.30194000       0.21404000       0.11023000
   166  C          0.69806000       0.78596000       0.88977000
   167  H          0.28740000       0.23960000       0.15080000
   168  H          0.71260000       0.76040000       0.84920000
   169  C          0.07744000       0.00323000       0.11043000
   170  C          0.92256000      -0.00323000       0.88957000
   171  H          0.04460000       0.04410000       0.13900000
   172  H          0.95540000       0.95590000       0.86100000
   173  C          0.17434000       0.87923000       0.02763000
   174  C          0.82566000       0.12077000       0.97237000
   175  H          0.20740000       0.83790000      -0.00060000
   176  H          0.79260000       0.16210000       0.00060000
   177  C          0.36074000       0.82526000       0.84933000
   178  C          0.63926000       0.17474000       0.15067000
   179  C          0.16704000       0.02154000       0.71442000
   180  C          0.83296000       0.97846000       0.28558000
   181  C          0.22314000       0.10974000       0.70242000
   182  C          0.77686000       0.89026000       0.29758000
   183  C          0.38014000       0.18624000       0.72813000
   184  C          0.61986000       0.81376000       0.27187000
   185  C          0.06774000       0.02594000       0.67933000
   186  C          0.93226000       0.97406000       0.32067000
   187  C          0.47284000       0.00224000       0.82613000
   188  C          0.52716000      -0.00224000       0.17387000
   189  H          0.50370000       0.94170000       0.85950000
   190  H          0.49630000       0.05830000       0.14050000
   191  C          0.21574000       0.92737000       0.76412000
   192  C          0.78426000       0.07263000       0.23588000
   193  C          0.37434000       0.00673000       0.79022000
   194  C          0.62566000       0.99327000       0.20978000
   195  C          0.32564000       0.10023000       0.74052000
   196  C          0.67436000       0.89977000       0.25948000
   197  C          0.31704000       0.91797000       0.80303000
   198  C          0.68296000       0.08203000       0.19697000
   199  C          0.01554000       0.94076000       0.69153000
   200  C          0.98446000       0.05924000       0.30847000
   201  H          0.94880000       0.94610000       0.66750000
   202  H          0.05120000       0.05390000       0.33250000
   203  C          0.17954000       0.20224000       0.65613000
   204  C          0.82046000       0.79776000       0.34387000
   205  H          0.11220000       0.20880000       0.63220000
   206  H          0.88780000       0.79120000       0.36780000
   207  C          0.16234000       0.84156000       0.77583000
   208  C          0.83766000       0.15844000       0.22417000
   209  C          0.21064000       0.74756000       0.82473000
   210  C          0.78936000       0.25244000       0.17527000
   211  C          0.52644000       0.08654000       0.81333000
   212  C          0.47356000       0.91346000       0.18667000
   213  H          0.59280000       0.08130000       0.83760000
   214  H          0.40720000       0.91870000       0.16240000
   215  C          0.33194000       0.27924000       0.67903000
   216  C          0.66806000       0.72076000       0.32097000
   217  H          0.36740000       0.33530000       0.67070000
   218  H          0.63260000       0.66470000       0.32930000
   219  C          0.48144000       0.17674000       0.76523000
   220  C          0.51856000       0.82326000       0.23477000
   221  H          0.51800000       0.23230000       0.75680000
   222  H          0.48200000       0.76770000       0.24320000
   223  C          0.30805000       0.74056000       0.86043000
   224  C          0.69195000       0.25944000       0.13957000
   225  H          0.33970000       0.67940000       0.89230000
   226  H          0.66030000       0.32060000       0.10770000
   227  C          0.06084000       0.85046000       0.73793000
   228  C          0.93916000       0.14954000       0.26207000
   229  C          0.23334000       0.28704000       0.64373000
   230  C          0.76666000       0.71296000       0.35627000
   231  H          0.20200000       0.34820000       0.61160000
   232  H          0.79800000       0.65180000       0.38840000
   233  H          0.02750000       0.79160000       0.74330000
   234  H          0.97250000       0.20840000       0.25670000
   235  H          0.17550000       0.68860000       0.83730000
   236  H          0.82450000       0.31140000       0.16270000
   237  H          0.42550000       0.81760000       0.87730000
   238  H          0.57450000       0.18240000       0.12270000
   239  H          0.03350000       0.08640000       0.65030000
   240  H          0.96650000       0.91360000       0.34970000
