data_UYAZEA
_symmetry_space_group_name_H-M    'P1'
_symmetry_Int_Tables_number       1
loop_
_symmetry_equiv_pos_site_id
_symmetry_equiv_pos_as_xyz
1 x,y,z
_cell_length_a                   7.2833
_cell_length_b                   10.5284
_cell_length_c                   10.5924
_cell_angle_alpha                108.6996
_cell_angle_beta                 103.4436
_cell_angle_gamma                107.8065
loop_
_atom_site_label
_atom_site_type_symbol
_atom_site_fract_x
_atom_site_fract_y
_atom_site_fract_z
     1  S          0.12098800       0.48126600       0.25018600
     2  S          0.87901200       0.51873400       0.74981400
     3  C          0.20943000       0.34142000       0.20802000
     4  C          0.79057000       0.65858000       0.79198000
     5  C          0.50663000       0.53362000       0.35432000
     6  C          0.49337000       0.46638000       0.64568000
     7  C          0.71563000       0.61352000       0.43402000
     8  C          0.28437000       0.38648000       0.56598000
     9  H          0.80720000       0.56570000       0.43350000
    10  H          0.19280000       0.43430000       0.56650000
    11  C          0.79133000       0.76352000       0.51462000
    12  C          0.20867000       0.23648000       0.48538000
    13  H          0.93510000       0.81860000       0.57040000
    14  H          0.06490000       0.18140000       0.42960000
    15  C          0.65873000       0.83402000       0.51462000
    16  C          0.34127000       0.16598000       0.48538000
    17  C          0.44943000       0.75622000       0.43532000
    18  C          0.55057000       0.24378000       0.56468000
    19  H          0.35890000       0.80480000       0.43490000
    20  H          0.64110000       0.19520000       0.56510000
    21  C          0.37463000       0.60672000       0.35672000
    22  C          0.62537000       0.39328000       0.64328000
    23  C          0.92743000       0.06662000       0.68663000
    24  C          0.07257000       0.93338000       0.31337000
    25  H          0.95020000       0.16980000       0.73400000
    26  H          0.04980000       0.83020000       0.26600000
    27  H          0.02040000       0.05960000       0.63360000
    28  H         -0.02040000       0.94040000       0.36640000
    29  H          0.95580000       0.02870000       0.75880000
    30  H          0.04420000       0.97130000       0.24120000
    31  N          0.07723000       0.20278190       0.12052000
    32  N          0.92277000       0.79721810       0.87948000
    33  H          0.12290000       0.13320000       0.10010000
    34  H          0.87710000       0.86680000       0.89990000
    35  H          0.94420000       0.18080000       0.08310000
    36  H          0.05580000       0.81920000       0.91690000
    37  N          0.40823000       0.38289180       0.26767180
    38  N          0.59177000       0.61710820       0.73232820
    39  O          0.71912000      -0.01746840       0.59055170
    40  O          0.28088000       0.01746840       0.40944830
    41  C          0.47833000       0.06442000       0.17872000
    42  C          0.52167000       0.93558000       0.82128000
    43  C          0.57853000       0.96322000       0.19332000
    44  C          0.42147000       0.03678000       0.80668000
    45  H          0.61800000       0.97530000       0.29380000
    46  H          0.38200000       0.02470000       0.70620000
    47  H          0.70740000      -0.00720000       0.17330000
    48  H          0.29260000       0.00720000       0.82670000
    49  C          0.44513000       0.80232000       0.09602000
    50  C          0.55487000       0.19768000       0.90398000
    51  H          0.38610000       0.79130000      -0.00300000
    52  H          0.61390000       0.20870000       0.00300000
    53  H          0.32850000       0.76710000       0.12680000
    54  H          0.67150000       0.23290000       0.87320000
    55  C          0.56583000       0.70772000       0.09702000
    56  C          0.43417000       0.29228000       0.90298000
    57  H          0.62570000       0.72000000       0.19640000
    58  H          0.37430000       0.28000000       0.80360000
    59  H          0.68210000       0.74330000       0.06600000
    60  H          0.31790000       0.25670000       0.93400000
    61  C          0.43623000       0.54522000       0.00092000
    62  C          0.56377000       0.45478000      -0.00092000
    63  H          0.37110000       0.53270000       0.90210000
    64  H          0.62890000       0.46730000       0.09790000
    65  H          0.32390000       0.50780000       0.03460000
    66  H          0.67610000       0.49220000       0.96540000
    67  O          0.30302000       0.02201160       0.09536160
    68  O          0.69698000       0.97798840       0.90463840
    69  O          0.59832000       0.20341150       0.26360150
    70  O          0.40168000       0.79658850       0.73639850
    71  H          0.53470000       0.25550000       0.25120000
    72  H          0.46530000       0.74450000       0.74880000
