data_UYIRIF
_symmetry_space_group_name_H-M    'P1'
_symmetry_Int_Tables_number       1
loop_
_symmetry_equiv_pos_site_id
_symmetry_equiv_pos_as_xyz
1 x,y,z
_cell_length_a                   5.78375
_cell_length_b                   6.11305
_cell_length_c                   16.401614
_cell_angle_alpha                98.0864
_cell_angle_beta                 92.1804
_cell_angle_gamma                101.8924
loop_
_atom_site_label
_atom_site_type_symbol
_atom_site_fract_x
_atom_site_fract_y
_atom_site_fract_z
     1  N          0.85764000       0.07574000       0.44603160
     2  N          0.14236000       0.92426000       0.55396840
     3  C          0.87645000       0.15845000       0.52672190
     4  C          0.12355000       0.84155000       0.47327810
     5  C         -0.02015000       0.91865000       0.41844180
     6  C          0.02015000       0.08135000       0.58155820
     7  C          0.73686000       0.33256000       0.55492000
     8  C          0.26314000       0.66744000       0.44508000
     9  H          0.84530000       0.47440000       0.57860000
    10  H          0.15470000       0.52560000       0.42140000
    11  H          0.63180000       0.27900000       0.59680000
    12  H          0.36820000       0.72100000       0.40320000
    13  H          0.64180000       0.35790000       0.50780000
    14  H          0.35820000       0.64210000       0.49220000
    15  C          0.95386000       0.83374000       0.32812000
    16  C          0.04614000       0.16626000       0.67188000
    17  H          0.04760000       0.71820000       0.31580000
    18  H          0.95240000       0.28180000       0.68420000
    19  H          0.00990000       0.95950000       0.29780000
    20  H         -0.00990000       0.04050000       0.70220000
    21  H          0.78670000       0.76780000       0.31130000
    22  H          0.21330000       0.23220000       0.68870000
    23  N          0.74426000       0.50164000       0.07511160
    24  N          0.25574000       0.49836000       0.92488840
    25  C          0.83755000       0.70715000       0.05570180
    26  C          0.16245000       0.29285000       0.94429820
    27  N          0.69876000       0.80234000       0.00973170
    28  N          0.30124000       0.19766000       0.99026830
    29  H          0.55270000       0.73040000      -0.00650000
    30  H          0.44730000       0.26960000       0.00650000
    31  H          0.75430000       0.93640000      -0.00400000
    32  H          0.24570000       0.06360000       0.00400000
    33  N          0.06014000       0.82744000       0.07999160
    34  N          0.93986000       0.17256000       0.92000840
    35  C          0.18985000       0.73265000       0.12672190
    36  C          0.81015000       0.26735000       0.87327810
    37  H          0.34640000       0.81240000       0.14470000
    38  H          0.65360000       0.18760000       0.85530000
    39  C          0.11005000       0.52245000       0.15118180
    40  C          0.88995000       0.47755000       0.84881820
    41  C          0.87925000       0.41305000       0.12177180
    42  C          0.12075000       0.58695000       0.87822820
    43  H          0.81710000       0.26810000       0.13610000
    44  H          0.18290000       0.73190000       0.86390000
    45  C          0.25275000       0.42655000       0.20332190
    46  C          0.74725000       0.57345000       0.79667810
    47  C          0.37015000       0.34895000       0.24821190
    48  C          0.62985000       0.65105000       0.75178810
    49  I          0.56987300       0.22801300       0.32638912
    50  I          0.43012700       0.77198700       0.67361088
