data_UYIRUR
_symmetry_space_group_name_H-M    'P1'
_symmetry_Int_Tables_number       1
loop_
_symmetry_equiv_pos_site_id
_symmetry_equiv_pos_as_xyz
1 x,y,z
_cell_length_a                   19.6252
_cell_length_b                   7.54727
_cell_length_c                   8.25838
_cell_angle_alpha                90.0
_cell_angle_beta                 100.9504
_cell_angle_gamma                90.0
loop_
_atom_site_label
_atom_site_type_symbol
_atom_site_fract_x
_atom_site_fract_y
_atom_site_fract_z
     1  N          0.64913100       0.47312000       0.01662000
     2  N          0.35086900       0.97312000       0.48338000
     3  N          0.35086900       0.52688000      -0.01662000
     4  N          0.64913100       0.02688000       0.51662000
     5  C          0.67478120       0.55293000       0.89847000
     6  C          0.32521880       0.05293000       0.60153000
     7  C          0.32521880       0.44707000       0.10153000
     8  C          0.67478120       0.94707000       0.39847000
     9  H          0.72070000       0.59870000       0.92430000
    10  H          0.27930000       0.09870000       0.57570000
    11  H          0.27930000       0.40130000       0.07570000
    12  H          0.72070000       0.90130000       0.42430000
    13  C          0.63780120       0.57283000       0.73848000
    14  C          0.36219880       0.07283000       0.76152000
    15  C          0.36219880       0.42717000       0.26152000
    16  C          0.63780120       0.92717000       0.23848000
    17  H          0.65830000       0.63140000       0.65800000
    18  H          0.34170000       0.13140000       0.84200000
    19  H          0.34170000       0.36860000       0.34200000
    20  H          0.65830000       0.86860000       0.15800000
    21  C          0.57091120       0.50693000       0.69678000
    22  C          0.42908880       0.00693000       0.80322000
    23  C          0.42908880       0.49307000       0.30322000
    24  C          0.57091120      -0.00693000       0.19678000
    25  C          0.54432130       0.42143000       0.82107000
    26  C          0.45567870       0.92143000       0.67893000
    27  C          0.45567870       0.57857000       0.17893000
    28  C          0.54432130       0.07857000       0.32107000
    29  H          0.49890000       0.37230000       0.79900000
    30  H          0.50110000       0.87230000       0.70100000
    31  H          0.50110000       0.62770000       0.20100000
    32  H          0.49890000       0.12770000       0.29900000
    33  C          0.58490130       0.40913000       0.97668000
    34  C          0.41509870       0.90913000       0.52332000
    35  C          0.41509870       0.59087000       0.02332000
    36  C          0.58490130       0.09087000       0.47668000
    37  H          0.56590000       0.35150000       0.06030000
    38  H          0.43410000       0.85150000       0.43970000
    39  H          0.43410000       0.64850000       0.93970000
    40  H          0.56590000       0.14850000       0.56030000
    41  C          0.53229120       0.52733000       0.52768000
    42  C          0.46770880       0.02733000       0.97232000
    43  C          0.46770880       0.47267000       0.47232000
    44  C          0.53229120       0.97267000       0.02768000
    45  H          0.55540000       0.58450000       0.45110000
    46  H          0.44460000       0.08450000       0.04890000
    47  H          0.44460000       0.41550000       0.54890000
    48  H          0.55540000       0.91550000       0.95110000
    49  N          0.93256900       0.34372000       0.08492180
    50  N          0.06743100       0.84372000       0.41507820
    51  N          0.06743100       0.65628000       0.91507820
    52  N          0.93256900       0.15628000       0.58492180
    53  C          0.94996100       0.50382000       0.15472000
    54  C          0.05003900       0.00382000       0.34528000
    55  C          0.05003900       0.49618000       0.84528000
    56  C          0.94996100      -0.00382000       0.65472000
    57  N         -0.00829900       0.50482000       0.30292000
    58  N          0.00829900       0.00482000       0.19708000
    59  N          0.00829900       0.49518000       0.69708000
    60  N         -0.00829900      -0.00482000       0.80292000
    61  H          0.00991400       0.59830000       0.33330000
    62  H          0.99008600       0.09830000       0.16670000
    63  H          0.99008600       0.40170000       0.66670000
    64  H          0.00991400       0.90170000       0.83330000
    65  H          0.01261400       0.41330000       0.33130000
    66  H          0.98738600       0.91330000       0.16870000
    67  H          0.98738600       0.58670000       0.66870000
    68  H          0.01261400       0.08670000       0.83130000
    69  N          0.92712900       0.66112000       0.08779180
    70  N          0.07287100       0.16112000       0.41220820
    71  N          0.07287100       0.33888000       0.91220820
    72  N          0.92712900       0.83888000       0.58779180
    73  C          0.88465100       0.65593000       0.94232000
    74  C          0.11534900       0.15593000       0.55768000
    75  C          0.11534900       0.34407000       0.05768000
    76  C          0.88465100       0.84407000       0.44232000
    77  H          0.86810000       0.76490000       0.89210000
    78  H          0.13190000       0.26490000       0.60790000
    79  H          0.13190000       0.23510000       0.10790000
    80  H          0.86810000       0.73510000       0.39210000
    81  C          0.86306110       0.49863000       0.85922000
    82  C          0.13693890      -0.00137000       0.64078000
    83  C          0.13693890       0.50137000       0.14078000
    84  C          0.86306110       0.00137000       0.35922000
    85  C          0.89007100       0.34392000       0.93952000
    86  C          0.10992900       0.84392000       0.56048000
    87  C          0.10992900       0.65608000       0.06048000
    88  C          0.89007100       0.15608000       0.43952000
    89  H          0.87740000       0.23340000       0.88740000
    90  H          0.12260000       0.73340000       0.61260000
    91  H          0.12260000       0.76660000       0.11260000
    92  H          0.87740000       0.26660000       0.38740000
    93  C          0.81975110       0.49333000       0.70002000
    94  C          0.18024890      -0.00667000       0.79998000
    95  C          0.18024890       0.50667000       0.29998000
    96  C          0.81975110       0.00667000       0.20002000
    97  C          0.78416120       0.48173000       0.56572000
    98  C          0.21583880      -0.01827000       0.93428000
    99  C          0.21583880       0.51827000       0.43428000
   100  C          0.78416120       0.01827000       0.06572000
   101  I          0.72672470       0.46510317       0.33620214
   102  I          0.27327530       0.96510317       0.16379786
   103  I          0.27327530       0.53489683       0.66379786
   104  I          0.72672470       0.03489683       0.83620214
