data_UYOTAE
_symmetry_space_group_name_H-M    'P1'
_symmetry_Int_Tables_number       1
loop_
_symmetry_equiv_pos_site_id
_symmetry_equiv_pos_as_xyz
1 x,y,z
_cell_length_a                   9.649516
_cell_length_b                   12.9152
_cell_length_c                   13.3902
_cell_angle_alpha                102.0073
_cell_angle_beta                 103.6164
_cell_angle_gamma                92.0474
loop_
_atom_site_label
_atom_site_type_symbol
_atom_site_fract_x
_atom_site_fract_y
_atom_site_fract_z
     1  O          0.09980100       0.05369600       0.26095700
     2  O          0.90019900       0.94630400       0.73904300
     3  H          0.07990000       0.10170000       0.22750000
     4  H          0.92010000       0.89830000       0.77250000
     5  O          0.97258890       0.95237700       0.11026700
     6  O          0.02741110       0.04762300       0.88973300
     7  C          0.06658140       0.66882100       0.54723110
     8  C          0.93341860       0.33117900       0.45276890
     9  H          0.04760000       0.62020000       0.58770000
    10  H          0.95240000       0.37980000       0.41230000
    11  C          0.05267140       0.63477100       0.44052110
    12  C          0.94732860       0.36522900       0.55947890
    13  H          0.02460000       0.56220000       0.40710000
    14  H          0.97540000       0.43780000       0.59290000
    15  C          0.07969130       0.70649900       0.38170100
    16  C          0.92030870       0.29350100       0.61829900
    17  H          0.06880000       0.68240000       0.30800000
    18  H          0.93120000       0.31760000       0.69200000
    19  C          0.12267120       0.81352900       0.42904900
    20  C          0.87732880       0.18647100       0.57095100
    21  C          0.15644130       0.89060900       0.36453900
    22  C          0.84355870       0.10939100       0.63546100
    23  H          0.14390000       0.96360000       0.40250000
    24  H          0.85610000       0.03640000       0.59750000
    25  C          0.05329140       0.86955900       0.25486900
    26  C          0.94670860       0.13044100       0.74513100
    27  H          0.08550000       0.81000000       0.20860000
    28  H          0.91450000       0.19000000       0.79140000
    29  H          0.95730000       0.84610000       0.26090000
    30  H          0.04270000       0.15390000       0.73910000
    31  C          0.03896130       0.96226900       0.20186900
    32  C          0.96103870       0.03773100       0.79813100
    33  C          0.31313140       0.88937120       0.35817110
    34  C          0.68686860       0.11062880       0.64182890
    35  H          0.37600000       0.90340000       0.42950000
    36  H          0.62400000       0.09660000       0.57050000
    37  H          0.33530000       0.94430000       0.32230000
    38  H          0.66470000       0.05570000       0.67770000
    39  H          0.32820000       0.81960000       0.31870000
    40  H          0.67180000       0.18040000       0.68130000
    41  C          0.10857150       0.77474110       0.59490100
    42  C          0.89142850       0.22525890       0.40509900
    43  H          0.11760000       0.79800000       0.66850000
    44  H          0.88240000       0.20200000       0.33150000
    45  C          0.13801130       0.84835900       0.53785100
    46  C          0.86198870       0.15164100       0.46214900
    47  C          0.18646160       0.96251100       0.59471100
    48  C          0.81353840       0.03748900       0.40528900
    49  H          0.28340000       0.98040000       0.58900000
    50  H          0.71660000       0.01960000       0.41100000
    51  H          0.18630000       0.97150000       0.66920000
    52  H          0.81370000       0.02850000       0.33080000
    53  H          0.12100000       0.00960000       0.56280000
    54  H          0.87900000      -0.00960000       0.43720000
    55  O          0.61128100       0.64099700       0.90985800
    56  O          0.38871900       0.35900300       0.09014200
    57  N          0.47805110      -0.00290200       0.85010800
    58  N          0.52194890       0.00290200       0.14989200
    59  N          0.80677110       0.74634800       0.01244800
    60  N          0.19322890       0.25365200       0.98755200
    61  C          0.62066130       0.00020900       0.88080900
    62  C          0.37933870      -0.00020900       0.11919100
    63  H          0.67580000       0.06250000       0.88030000
    64  H          0.32420000       0.93750000       0.11970000
    65  C          0.69223130       0.91705900       0.91330900
    66  C          0.30776870       0.08294100       0.08669100
    67  H          0.79380000       0.92290000       0.93550000
    68  H          0.20620000       0.07710000       0.06450000
    69  C          0.61247130       0.82519900       0.91275900
    70  C          0.38752870       0.17480100       0.08724100
    71  C          0.67847130       0.72949900       0.94562900
    72  C          0.32152870       0.27050100       0.05437100
    73  C          0.40217140       0.90841100       0.85074110
    74  C          0.59782860       0.09158900       0.14925890
    75  H          0.30070000       0.90560000       0.83040000
    76  H          0.69930000       0.09440000       0.16960000
    77  C          0.46443140       0.82063100       0.87958100
    78  C          0.53556860       0.17936900       0.12041900
    79  H          0.40680000       0.75840000       0.87670000
    80  H          0.59320000       0.24160000       0.12330000
    81  H          0.84961600       0.81161300       0.04141100
    82  H          0.15038400       0.18838700       0.95858900
    83  H          0.84911600       0.68751200       0.03661200
    84  H          0.15088400       0.31248800       0.96338800
    85  O          0.92066900       0.56458600       0.08653600
    86  O          0.07933100       0.43541400       0.91346400
    87  N          0.02810110       0.21376800       0.17266800
    88  N          0.97189890       0.78623200       0.82733200
    89  N          0.73651110       0.45808800       0.96944200
    90  N          0.26348890       0.54191200       0.03055800
    91  C          0.08061140       0.31476900       0.21687900
    92  C          0.91938860       0.68523100       0.78312100
    93  H          0.15730000       0.32870000       0.27850000
    94  H          0.84270000       0.67130000       0.72150000
    95  C          0.02739130       0.39965900       0.17612900
    96  C          0.97260870       0.60034100       0.82387100
    97  H          0.06780000       0.47020000       0.20900000
    98  H          0.93220000       0.52980000       0.79100000
    99  C          0.91440120       0.38053900       0.08669900
   100  C          0.08559880       0.61946100       0.91330100
   101  C          0.85636120       0.47539900       0.04597900
   102  C          0.14363880       0.52460100       0.95402100
   103  C          0.92087130       0.19554900       0.08500900
   104  C          0.07912870       0.80445100       0.91499100
   105  H          0.88450000       0.12410000       0.05220000
   106  H          0.11550000       0.87590000       0.94780000
   107  C          0.86071130       0.27597900       0.04002900
   108  C          0.13928870       0.72402100       0.95997100
   109  H          0.78410000       0.25990000       0.97830000
   110  H          0.21590000       0.74010000       0.02170000
   111  H          0.68851500       0.39281200       0.94218900
   112  H          0.31148500       0.60718800       0.05781100
   113  H          0.69861600       0.51631300       0.94818800
   114  H          0.30138400       0.48368700       0.05181200
   115  O          0.55763900       0.25678600       0.85871700
   116  O          0.44236100       0.74321400       0.14128300
   117  O          0.34546900       0.16207600       0.79500700
   118  O          0.65453100       0.83792400       0.20499300
   119  H          0.39410000       0.11300000       0.81220000
   120  H          0.60590000       0.88700000       0.18780000
   121  C          0.42869130       0.25141900       0.82047900
   122  C          0.57130870       0.74858100       0.17952100
   123  C          0.34856140       0.34634900       0.80079100
   124  C          0.65143860       0.65365100       0.19920900
   125  H          0.34840000       0.39300000       0.86950000
   126  H          0.65160000       0.60700000       0.13050000
   127  H          0.24780000       0.32140000       0.76350000
   128  H          0.75220000       0.67860000       0.23650000
   129  C          0.41093130       0.41162900       0.73613100
   130  C          0.58906870       0.58837100       0.26386900
   131  H          0.51100000       0.43890000       0.77650000
   132  H          0.48900000       0.56110000       0.22350000
   133  C          0.41749130       0.34872900       0.62773900
   134  C          0.58250870       0.65127100       0.37226100
   135  C          0.52680130       0.37650100       0.58226100
   136  C          0.47319870       0.62349900       0.41773900
   137  C          0.53203160       0.31884110       0.48328110
   138  C          0.46796840       0.68115890       0.51671890
   139  H          0.60690000       0.33660000       0.45310000
   140  H          0.39310000       0.66340000       0.54690000
   141  C          0.42954170       0.23570120       0.42806110
   142  C          0.57045830       0.76429880       0.57193890
   143  H          0.43410000       0.19700000       0.36050000
   144  H          0.56590000       0.80300000       0.63950000
   145  C          0.32415150       0.50833100       0.72604110
   146  C          0.67584850       0.49166900       0.27395890
   147  H          0.36460000       0.55150000       0.68590000
   148  H          0.63540000       0.44850000       0.31410000
   149  H          0.32830000       0.55120000       0.79650000
   150  H          0.67170000       0.44880000       0.20350000
   151  H          0.22430000       0.48380000       0.68940000
   152  H          0.77570000       0.51620000       0.31060000
   153  C          0.31574140       0.26541100       0.57111100
   154  C          0.68425860       0.73458900       0.42888900
   155  H          0.24120000       0.24640000       0.60110000
   156  H          0.75880000       0.75360000       0.39890000
   157  C          0.32059160       0.20953110       0.47208110
   158  C          0.67940840       0.79046890       0.52791890
   159  H          0.24930000       0.15330000       0.43440000
   160  H          0.75070000       0.84670000       0.56560000
   161  C          0.63962150       0.46685110       0.63940120
   162  C          0.36037850       0.53314890       0.36059880
   163  H          0.59330000       0.53050000       0.66320000
   164  H          0.40670000       0.46950000       0.33680000
   165  H          0.69690000       0.48150000       0.59160000
   166  H          0.30310000       0.51850000       0.40840000
   167  H          0.70190000       0.44720000       0.70050000
   168  H          0.29810000       0.55280000       0.29950000
