data_UYOZEO
_symmetry_space_group_name_H-M    'P1'
_symmetry_Int_Tables_number       1
loop_
_symmetry_equiv_pos_site_id
_symmetry_equiv_pos_as_xyz
1 x,y,z
_cell_length_a                   8.345312
_cell_length_b                   10.179815
_cell_length_c                   10.662616
_cell_angle_alpha                87.5912
_cell_angle_beta                 74.0472
_cell_angle_gamma                69.0062
loop_
_atom_site_label
_atom_site_type_symbol
_atom_site_fract_x
_atom_site_fract_y
_atom_site_fract_z
     1  N          0.10312000       0.95433150       0.24097150
     2  N          0.89688000       0.04566850       0.75902850
     3  H          0.00400000       0.01450000       0.28710000
     4  H         -0.00400000      -0.01450000       0.71290000
     5  N          0.92332000       0.47980170       0.86331850
     6  N          0.07668000       0.52019830       0.13668150
     7  C          0.20013000       0.84912000       0.29844190
     8  C          0.79987000       0.15088000       0.70155810
     9  H          0.15900000       0.84080000       0.38770000
    10  H          0.84100000       0.15920000       0.61230000
    11  C          0.36033000       0.75254190       0.22724170
    12  C          0.63967000       0.24745810       0.77275830
    13  H          0.42680000       0.67940000       0.26830000
    14  H          0.57320000       0.32060000       0.73170000
    15  C          0.42272000       0.76450170       0.09384160
    16  C          0.57728000       0.23549830       0.90615840
    17  C          0.31573000       0.87449190       0.03673170
    18  C          0.68427000       0.12550810       0.96326830
    19  H          0.35130000       0.88470000       0.94740000
    20  H          0.64870000       0.11530000       0.05260000
    21  C          0.15733000       0.96760190       0.11326180
    22  C          0.84267000       0.03239810       0.88673820
    23  H          0.08680000       0.04130000       0.07510000
    24  H          0.91320000       0.95870000       0.92490000
    25  C          0.83163000       0.43791190       0.97010810
    26  C          0.16837000       0.56208810       0.02989190
    27  H          0.87860000       0.34560000      -0.00710000
    28  H          0.12140000       0.65440000       0.00710000
    29  C          0.66962000       0.52652180       0.04799180
    30  C          0.33038000       0.47347820       0.95200820
    31  H          0.60870000       0.49390000       0.12160000
    32  H          0.39130000       0.50610000       0.87840000
    33  C          0.59832000       0.66472170       0.01555160
    34  C          0.40168000       0.33527830       0.98444840
    35  C          0.69793000       0.70752000       0.90596810
    36  C          0.30207000       0.29248000       0.09403190
    37  H          0.65670000       0.80010000       0.88250000
    38  H          0.34330000       0.19990000       0.11750000
    39  C          0.85763000       0.61272000       0.83228000
    40  C          0.14237000       0.38728000       0.16772000
    41  H          0.92170000       0.64240000       0.75820000
    42  H          0.07830000       0.35760000       0.24180000
    43  F          0.61108170       0.63772130       0.64957130
    44  F          0.38891830       0.36227870       0.35042870
    45  F          0.15133150       0.58623130       0.50446140
    46  F          0.84866850       0.41376870       0.49553860
    47  O          0.21373000       0.74481160       0.78590140
    48  O          0.78627000       0.25518840       0.21409860
    49  O          0.16681190       0.85255130       0.60810130
    50  O          0.83318810       0.14744870       0.39189870
    51  C          0.55312000       0.57067180       0.57575170
    52  C          0.44688000       0.42932820       0.42424830
    53  C          0.37372000       0.62115140       0.58170150
    54  C          0.62628000       0.37884860       0.41829850
    55  C          0.32452000       0.54540180       0.50319180
    56  C          0.67548000       0.45459820       0.49680820
    57  C          0.24072000       0.74875150       0.66755160
    58  C          0.75928000       0.25124850       0.33244840
    59  F          0.18741150       0.18848130       0.47416120
    60  F          0.81258850       0.81151870       0.52583880
    61  F          0.42548160       0.03027120       0.26657110
    62  F          0.57451840       0.96972880       0.73342890
    63  O          0.19042000       0.13673160       0.82967150
    64  O          0.80958000       0.86326840       0.17032850
    65  O          0.20572000       0.31416140       0.70371150
    66  O          0.79428000       0.68583860       0.29628850
    67  H          0.13510000       0.36300000       0.76900000
    68  H          0.86490000       0.63700000       0.23100000
    69  C          0.46582000       0.01431180       0.38207170
    70  C          0.53418000      -0.01431180       0.61792830
    71  C          0.34322000       0.09813170       0.48898180
    72  C          0.65678000       0.90186830       0.51101820
    73  C          0.37542000       0.08770170       0.61032170
    74  C          0.62458000       0.91229830       0.38967830
    75  C          0.24513000       0.18322000       0.72761190
    76  C          0.75487000       0.81678000       0.27238810
