data_UZISUT
_symmetry_space_group_name_H-M    'P1'
_symmetry_Int_Tables_number       1
loop_
_symmetry_equiv_pos_site_id
_symmetry_equiv_pos_as_xyz
1 x,y,z
_cell_length_a                   6.0015511
_cell_length_b                   26.14275
_cell_length_c                   8.4073515
_cell_angle_alpha                90.0
_cell_angle_beta                 105.24709
_cell_angle_gamma                90.0
loop_
_atom_site_label
_atom_site_type_symbol
_atom_site_fract_x
_atom_site_fract_y
_atom_site_fract_z
     1  Cl         0.18713000       0.61243500       0.44698180
     2  Cl         0.81287000       0.11243500       0.55301820
     3  N          0.12126000       0.36202130       0.58174000
     4  N          0.87874000       0.86202130       0.41826000
     5  H          0.18320000       0.36930000       0.49910000
     6  H          0.81680000       0.86930000       0.50090000
     7  H          0.96810000       0.36430000       0.54650000
     8  H          0.03190000       0.86430000       0.45350000
     9  H          0.16060000       0.33040000       0.61730000
    10  H          0.83940000       0.83040000       0.38270000
    11  C          0.20018000       0.45297180       0.65576000
    12  C          0.79982000       0.95297180       0.34424000
    13  C         -0.00579000       0.47573170       0.57196000
    14  C          0.00579000       0.97573170       0.42804000
    15  H          0.85700000       0.45760000       0.55730000
    16  H          0.14300000       0.95760000       0.44270000
    17  C         -0.01161000       0.52464180       0.50956000
    18  C          0.01161000       0.02464180       0.49044000
    19  H          0.84880000       0.53920000       0.45240000
    20  H          0.15120000       0.03920000       0.54760000
    21  C          0.19071000       0.55178190       0.53256000
    22  C          0.80929000       0.05178190       0.46744000
    23  C          0.39681000       0.53052000       0.61797000
    24  C          0.60319000       0.03052000       0.38203000
    25  H          0.53310000       0.54900000       0.63470000
    26  H          0.46690000       0.04900000       0.36530000
    27  C          0.40049000       0.48177190       0.67806000
    28  C          0.59951000       0.98177190       0.32194000
    29  H          0.54060000       0.46760000       0.73530000
    30  H          0.45940000       0.96760000       0.26470000
    31  C          0.20928000       0.39952180       0.72135000
    32  C          0.79072000       0.89952180       0.27865000
    33  H          0.37130000       0.39130000       0.77330000
    34  H          0.62870000       0.89130000       0.22670000
    35  C          0.07439000       0.39134190       0.84796000
    36  C          0.92561000       0.89134190       0.15204000
    37  H          0.13750000       0.41250000       0.94240000
    38  H          0.86250000       0.91250000       0.05760000
    39  H          0.08440000       0.35610000       0.88080000
    40  H          0.91560000       0.85610000       0.11920000
    41  H          0.91550000       0.40030000       0.80100000
    42  H          0.08450000       0.90030000       0.19900000
    43  S          0.48882180       0.37781400       0.29134130
    44  S          0.51117820       0.87781400       0.70865870
    45  O          0.24505000       0.37887110       0.28983000
    46  O          0.75495000       0.87887110       0.71017000
    47  O          0.63355000       0.37549120       0.45934000
    48  O          0.36645000       0.87549120       0.54066000
    49  O          0.54206000       0.33923110       0.18494000
    50  O          0.45794000       0.83923110       0.81506000
    51  N          0.67357000       0.58154140       0.03365000
    52  N          0.32643000       0.08154140       0.96635000
    53  N          0.84757000       0.58558140       0.97665000
    54  N          0.15243000       0.08558140       0.02335000
    55  N          0.03147000       0.77941140       0.76415000
    56  N          0.96853000       0.27941140       0.23585000
    57  H          0.14490000       0.78330000       0.72070000
    58  H          0.85510000       0.28330000       0.27930000
    59  H          0.94670000       0.80520000       0.77380000
    60  H          0.05330000       0.30520000       0.22620000
    61  C          0.54448000       0.43797160       0.21005000
    62  C          0.45552000       0.93797160       0.78995000
    63  C          0.40738000       0.47931150       0.21995000
    64  C          0.59262000       0.97931150       0.78005000
    65  H          0.28380000       0.47590000       0.26670000
    66  H          0.71620000       0.97590000       0.73330000
    67  C          0.45558000       0.52633160       0.15906000
    68  C          0.54442000       0.02633160       0.84094000
    69  H          0.36410000       0.55460000       0.16550000
    70  H          0.63590000       0.05460000       0.83450000
    71  C          0.63818000       0.53131160       0.08915000
    72  C          0.36182000       0.03131160       0.91085000
    73  C          0.77688000       0.48900170       0.08055000
    74  C          0.22312000       0.98900170       0.91945000
    75  H          0.90070000       0.49240000       0.03410000
    76  H          0.09930000       0.99240000       0.96590000
    77  C          0.73048000       0.44227160       0.14085000
    78  C          0.26952000       0.94227160       0.85915000
    79  H          0.82210000       0.41400000       0.13530000
    80  H          0.17790000       0.91400000       0.86470000
    81  C          0.88368000       0.63543160       0.92405000
    82  C          0.11632000       0.13543160       0.07595000
    83  C          0.74908000       0.67772160       0.93965000
    84  C          0.25092000       0.17772160       0.06035000
    85  H          0.62470000       0.67380000      -0.01470000
    86  H          0.37530000       0.17380000       0.01470000
    87  C          0.79948000       0.72483170       0.88805000
    88  C          0.20052000       0.22483170       0.11195000
    89  H          0.70870000       0.75270000       0.89930000
    90  H          0.29130000       0.25270000       0.10070000
    91  C         -0.01472000       0.73191160       0.81864000
    92  C          0.01472000       0.23191160       0.18136000
    93  C          0.12108000       0.68980160       0.80394000
    94  C          0.87892000       0.18980160       0.19606000
    95  H          0.24500000       0.69370000       0.75800000
    96  H          0.75500000       0.19370000       0.24200000
    97  C          0.07189000       0.64247160       0.85744000
    98  C          0.92811000       0.14247160       0.14256000
    99  H          0.16510000       0.61470000       0.84930000
   100  H          0.83490000       0.11470000       0.15070000
   101  O          0.31746000       0.26903120       0.72734000
   102  O          0.68254000       0.76903120       0.27266000
   103  O          0.68426000       0.22115160       0.63185000
   104  O          0.31574000       0.72115160       0.36815000
   105  C          0.54949000       0.26959180       0.83156000
   106  C          0.45051000       0.76959180       0.16844000
   107  H          0.57100000       0.24120000       0.90830000
   108  H          0.42900000       0.74120000       0.09170000
   109  H          0.57620000       0.30110000       0.89450000
   110  H          0.42380000       0.80110000       0.10550000
   111  C          0.71849000       0.26542000       0.72887000
   112  C          0.28151000       0.76542000       0.27113000
   113  H          0.70320000       0.29520000       0.65770000
   114  H          0.29680000       0.79520000       0.34230000
   115  H          0.87410000       0.26520000       0.80070000
   116  H          0.12590000       0.76520000       0.19930000
   117  C          0.45051000       0.22082000       0.52737000
   118  C          0.54949000       0.72082000       0.47263000
   119  H          0.42510000       0.18980000       0.46140000
   120  H          0.57490000       0.68980000       0.53860000
   121  H          0.42810000       0.24980000       0.45290000
   122  H          0.57190000       0.74980000       0.54710000
   123  C          0.27981000       0.22332000       0.62986000
   124  C          0.72019000       0.72332000       0.37014000
   125  H          0.12380000       0.22320000       0.55840000
   126  H          0.87620000       0.72320000       0.44160000
   127  H          0.29780000       0.19360000       0.70120000
   128  H          0.70220000       0.69360000       0.29880000
