data_UZOJOL
_symmetry_space_group_name_H-M    'P1'
_symmetry_Int_Tables_number       1
loop_
_symmetry_equiv_pos_site_id
_symmetry_equiv_pos_as_xyz
1 x,y,z
_cell_length_a                   4.29503
_cell_length_b                   25.7935
_cell_length_c                   24.3562
_cell_angle_alpha                90.0
_cell_angle_beta                 90.3275
_cell_angle_gamma                90.0
loop_
_atom_site_label
_atom_site_type_symbol
_atom_site_fract_x
_atom_site_fract_y
_atom_site_fract_z
     1  S          0.16878110       0.52891200       0.23534200
     2  S          0.83121890       0.02891200       0.26465800
     3  S          0.83121890       0.47108800       0.76465800
     4  S          0.16878110       0.97108800       0.73534200
     5  O          0.54624000       0.50419600       0.33682700
     6  O          0.45376000       0.00419600       0.16317300
     7  O          0.45376000       0.49580400       0.66317300
     8  O          0.54624000      -0.00419600       0.83682700
     9  O          0.88234000       0.55727700       0.37106600
    10  O          0.11766000       0.05727700       0.12893400
    11  O          0.11766000       0.44272300       0.62893400
    12  O          0.88234000       0.94272300       0.87106600
    13  N          0.02854000       0.45588600       0.13158700
    14  N         -0.02854000       0.95588600       0.36841300
    15  N         -0.02854000       0.54411400       0.86841300
    16  N          0.02854000       0.04411400       0.63158700
    17  N          0.23314000       0.46409600       0.04774700
    18  N          0.76686000       0.96409600       0.45225300
    19  N          0.76686000       0.53590400       0.95225300
    20  N          0.23314000       0.03590400       0.54774700
    21  H          0.27056700       0.45734100       0.01298000
    22  H          0.72943300       0.95734100       0.48702000
    23  H          0.72943300       0.54265900       0.98702000
    24  H          0.27056700       0.04265900       0.51298000
    25  N          0.55524000       0.53987600       0.06313600
    26  N          0.44476000       0.03987600       0.43686400
    27  N          0.44476000       0.46012400       0.93686400
    28  N          0.55524000       0.96012400       0.56313600
    29  N          0.51534000       0.57115600       0.15528600
    30  N          0.48466000       0.07115600       0.34471400
    31  N          0.48466000       0.42884400       0.84471400
    32  N          0.51534000       0.92884400       0.65528600
    33  N          0.25304000       0.63335600       0.25309600
    34  N          0.74696000       0.13335600       0.24690400
    35  N          0.74696000       0.36664400       0.74690400
    36  N          0.25304000       0.86664400       0.75309600
    37  N          0.57594000       0.63811700       0.32429700
    38  N          0.42406000       0.13811700       0.17570300
    39  N          0.42406000       0.36188300       0.67570300
    40  N          0.57594000       0.86188300       0.82429700
    41  N          0.66014000       0.54740700       0.34159600
    42  N          0.33986000       0.04740700       0.15840400
    43  N          0.33986000       0.45259300       0.65840400
    44  N          0.66014000       0.95259300       0.84159600
    45  C          0.04125000       0.43716800       0.08186800
    46  C          0.95875000       0.93716800       0.41813200
    47  C          0.95875000       0.56283200       0.91813200
    48  C          0.04125000       0.06283200       0.58186800
    49  H          0.92714800       0.40745700       0.07046500
    50  H          0.07285200       0.90745700       0.42953500
    51  H          0.07285200       0.59254300       0.92953500
    52  H          0.92714800       0.09254300       0.57046500
    53  C          0.35424000       0.50325700       0.07799700
    54  C          0.64576000       0.00325700       0.42200300
    55  C          0.64576000       0.49674300       0.92200300
    56  C          0.35424000      -0.00325700       0.57799700
    57  C          0.62334000       0.57199700       0.10404800
    58  C          0.37666000       0.07199700       0.39595200
    59  C          0.37666000       0.42800300       0.89595200
    60  C          0.62334000       0.92800300       0.60404800
    61  H          0.76654800       0.59891500       0.09581600
    62  H          0.23345200       0.09891500       0.40418400
    63  H          0.23345200       0.40108500       0.90418400
    64  H          0.76654800       0.90108500       0.59581600
    65  C          0.31554000       0.53396700       0.16852700
    66  C          0.68446000       0.03396700       0.33147300
    67  C          0.68446000       0.46603300       0.83147300
    68  C          0.31554000       0.96603300       0.66852700
    69  C          0.22444000       0.49780700       0.12993700
    70  C          0.77556000      -0.00219300       0.37006300
    71  C          0.77556000       0.50219300       0.87006300
    72  C          0.22444000       0.00219300       0.62993700
    73  C          0.32634000       0.58331700       0.26638700
    74  C          0.67366000       0.08331700       0.23361300
    75  C          0.67366000       0.41668300       0.73361300
    76  C          0.32634000       0.91668300       0.76638700
    77  C          0.05355000       0.65135800       0.20870800
    78  C          0.94645000       0.15135800       0.29129200
    79  C          0.94645000       0.34864200       0.79129200
    80  C          0.05355000       0.84864200       0.70870800
    81  H         -0.02720800       0.68585600       0.21761100
    82  H          0.02720800       0.18585600       0.28238900
    83  H          0.02720800       0.31414400       0.78238900
    84  H         -0.02720800       0.81414400       0.71761100
    85  H          0.87932600       0.62719800       0.20384600
    86  H          0.12067400       0.12719800       0.29615400
    87  H          0.12067400       0.37280200       0.79615400
    88  H          0.87932600       0.87280200       0.70384600
    89  H          0.17369400       0.65313200       0.17467200
    90  H          0.82630600       0.15313200       0.32532800
    91  H          0.82630600       0.34686800       0.82532800
    92  H          0.17369400       0.84686800       0.67467200
    93  C          0.40825000       0.66425800       0.28874800
    94  C          0.59175000       0.16425800       0.21125200
    95  C          0.59175000       0.33574200       0.71125200
    96  C          0.40825000       0.83574200       0.78874800
    97  H          0.39681300       0.70102700       0.28809300
    98  H          0.60318700       0.20102700       0.21190700
    99  H          0.60318700       0.29897300       0.71190700
   100  H          0.39681300       0.79897300       0.78809300
   101  C          0.52324000       0.58840700       0.31054800
   102  C          0.47676000       0.08840700       0.18945200
   103  C          0.47676000       0.41159300       0.68945200
   104  C          0.52324000       0.91159300       0.81054800
   105  S          0.82158120       0.72511200       0.52805200
   106  S          0.17841880       0.22511200       0.97194800
   107  S          0.17841880       0.27488800       0.47194800
   108  S          0.82158120       0.77488800       0.02805200
   109  O          0.41335000       0.80986700       0.57745700
   110  O          0.58665000       0.30986700       0.92254300
   111  O          0.58665000       0.19013300       0.42254300
   112  O          0.41335000       0.69013300       0.07745700
   113  O          0.12244000       0.86038700       0.52867800
   114  O          0.87756000       0.36038700       0.97132200
   115  O          0.87756000       0.13961300       0.47132200
   116  O          0.12244000       0.63961300       0.02867800
   117  N         -0.01656000       0.61179700       0.57487700
   118  N          0.01656000       0.11179700       0.92512300
   119  N          0.01656000       0.38820300       0.42512300
   120  N         -0.01656000       0.88820300       0.07487700
   121  N          0.77574000       0.53678600       0.54632700
   122  N          0.22426000       0.03678600       0.95367300
   123  N          0.22426000       0.46321400       0.45367300
   124  N          0.77574000       0.96321400       0.04632700
   125  H          0.73884300       0.50325400       0.54475300
   126  H          0.26115700       0.00325400       0.95524700
   127  H          0.26115700       0.49674600       0.45524700
   128  H          0.73884300      -0.00325400       0.04475300
   129  N          0.43944000       0.56930600       0.47389700
   130  N          0.56056000       0.06930600       0.02610300
   131  N          0.56056000       0.43069400       0.52610300
   132  N          0.43944000       0.93069400       0.97389700
   133  N          0.47304000       0.66183600       0.46520600
   134  N          0.52696000       0.16183600       0.03479400
   135  N          0.52696000       0.33816400       0.53479400
   136  N          0.47304000       0.83816400       0.96520600
   137  N          0.74434000       0.76765600       0.42544700
   138  N          0.25566000       0.26765600       0.07455300
   139  N          0.25566000       0.23234400       0.57455300
   140  N          0.74434000       0.73234400       0.92544700
   141  N          0.42704000       0.83433600       0.43687800
   142  N          0.57296000       0.33433600       0.06312200
   143  N          0.57296000       0.16566400       0.56312200
   144  N          0.42704000       0.66566400       0.93687800
   145  N          0.32694000       0.82758700       0.53350800
   146  N          0.67306000       0.32758700       0.96649200
   147  N          0.67306000       0.17241300       0.46649200
   148  N          0.32694000       0.67241300       0.03350800
   149  C         -0.02815000       0.56160800       0.58141900
   150  C          0.02815000       0.06160800       0.91858100
   151  C          0.02815000       0.43839200       0.41858100
   152  C         -0.02815000       0.93839200       0.08141900
   153  H          0.09091900       0.54389000       0.60851600
   154  H          0.90908100       0.04389000       0.89148400
   155  H          0.90908100       0.45611000       0.39148400
   156  H          0.09091900       0.95611000       0.10851600
   157  C          0.64794000       0.57430700       0.51408800
   158  C          0.35206000       0.07430700       0.98591200
   159  C          0.35206000       0.42569300       0.48591200
   160  C          0.64794000       0.92569300       0.01408800
   161  C          0.36474000       0.61485700       0.45151800
   162  C          0.63526000       0.11485700       0.04848200
   163  C          0.63526000       0.38514300       0.54848200
   164  C          0.36474000       0.88514300       0.95151800
   165  H          0.21701100       0.61385400       0.42235200
   166  H          0.78298900       0.11385400       0.07764800
   167  H          0.78298900       0.38614600       0.57764800
   168  H          0.21701100       0.88614600       0.92235200
   169  C          0.67804000       0.66492700       0.50574700
   170  C          0.32196000       0.16492700       0.99425300
   171  C          0.32196000       0.33507300       0.49425300
   172  C          0.67804000       0.83507300       0.00574700
   173  C          0.77774000       0.62054700       0.53251700
   174  C          0.22226000       0.12054700       0.96748300
   175  C          0.22226000       0.37945300       0.46748300
   176  C          0.77774000       0.87945300       0.03251700
   177  C          0.66544000       0.76694700       0.47976800
   178  C          0.33456000       0.26694700       0.02023200
   179  C          0.33456000       0.23305300       0.52023200
   180  C          0.66544000       0.73305300       0.97976800
   181  C          0.94555000       0.73141800       0.39621800
   182  C          0.05445000       0.23141800       0.10378200
   183  C          0.05445000       0.26858200       0.60378200
   184  C          0.94555000       0.76858200       0.89621800
   185  H          0.11952200       0.72125300       0.42007500
   186  H          0.88047800       0.22125300       0.07992500
   187  H          0.88047800       0.27874700       0.57992500
   188  H          0.11952200       0.77874700       0.92007500
   189  H          0.02625400       0.74810200       0.36307600
   190  H         -0.02625400       0.24810200       0.13692400
   191  H         -0.02625400       0.25189800       0.63692400
   192  H          0.02625400       0.75189800       0.86307600
   193  H          0.82553700       0.70055500       0.38587800
   194  H          0.17446300       0.20055500       0.11412200
   195  H          0.17446300       0.29944500       0.61412200
   196  H          0.82553700       0.79944500       0.88587800
   197  C          0.59485000       0.80783800       0.40212900
   198  C          0.40515000       0.30783800       0.09787100
   199  C          0.40515000       0.19216200       0.59787100
   200  C          0.59485000       0.69216200       0.90212900
   201  H          0.60952600       0.81614700       0.36423100
   202  H          0.39047400       0.31614700       0.13576900
   203  H          0.39047400       0.18385300       0.63576900
   204  H          0.60952600       0.68385300       0.86423100
   205  C          0.47244000       0.80908700       0.48486800
   206  C          0.52756000       0.30908700       0.01513200
   207  C          0.52756000       0.19091300       0.51513200
   208  C          0.47244000       0.69091300       0.98486800
   209  O          0.25506000       0.78183700       0.26993900
   210  O          0.74494000       0.28183700       0.23006100
   211  O          0.74494000       0.21816300       0.73006100
   212  O          0.25506000       0.71816300       0.76993900
   213  N          0.42996000       0.85642900       0.23453900
   214  N          0.57004000       0.35642900       0.26546100
   215  N          0.57004000       0.14357100       0.76546100
   216  N          0.42996000       0.64357100       0.73453900
   217  C          0.50099000       0.77996120       0.18039130
   218  C          0.49901000       0.27996120       0.31960870
   219  C          0.49901000       0.22003880       0.81960870
   220  C          0.50099000       0.72003880       0.68039130
   221  H          0.45676700       0.74275200       0.18278400
   222  H          0.54323300       0.24275200       0.31721600
   223  H          0.54323300       0.25724800       0.81721600
   224  H          0.45676700       0.75724800       0.68278400
   225  H          0.72579600       0.78525700       0.17668900
   226  H          0.27420400       0.28525700       0.32331100
   227  H          0.27420400       0.21474300       0.82331100
   228  H          0.72579600       0.71474300       0.67668900
   229  H          0.39342600       0.79456100       0.14833600
   230  H          0.60657400       0.29456100       0.35166400
   231  H          0.60657400       0.20543900       0.85166400
   232  H          0.39342600       0.70543900       0.64833600
   233  C          0.38767000       0.80676110       0.23205130
   234  C          0.61233000       0.30676110       0.26794870
   235  C          0.61233000       0.19323890       0.76794870
   236  C          0.38767000       0.69323890       0.73205130
   237  C          0.57878000       0.88497110       0.19124120
   238  C          0.42122000       0.38497110       0.30875880
   239  C          0.42122000       0.11502890       0.80875880
   240  C          0.57878000       0.61502890       0.69124120
   241  H          0.77201800       0.86743500       0.18086300
   242  H          0.22798200       0.36743500       0.31913700
   243  H          0.22798200       0.13256500       0.81913700
   244  H          0.77201800       0.63256500       0.68086300
   245  H          0.62632200       0.92012500       0.20403400
   246  H          0.37367800       0.42012500       0.29596600
   247  H          0.37367800       0.07987500       0.79596600
   248  H          0.62632200       0.57987500       0.70403400
   249  H          0.43904000       0.88679900       0.15933800
   250  H          0.56096000       0.38679900       0.34066200
   251  H          0.56096000       0.11320100       0.84066200
   252  H          0.43904000       0.61320100       0.65933800
   253  C          0.30608000       0.88455120       0.28237120
   254  C          0.69392000       0.38455120       0.21762880
   255  C          0.69392000       0.11544880       0.71762880
   256  C          0.30608000       0.61544880       0.78237120
   257  H          0.18088800       0.91403700       0.26972400
   258  H          0.81911200       0.41403700       0.23027600
   259  H          0.81911200       0.08596300       0.73027600
   260  H          0.18088800       0.58596300       0.76972400
   261  H          0.47920400       0.89714000       0.30509200
   262  H          0.52079600       0.39714000       0.19490800
   263  H          0.52079600       0.10286000       0.69490800
   264  H          0.47920400       0.60286000       0.80509200
   265  H          0.17568500       0.86115700       0.30407600
   266  H          0.82431500       0.36115700       0.19592400
   267  H          0.82431500       0.13884300       0.69592400
   268  H          0.17568500       0.63884300       0.80407600
