data_UZUFON
_symmetry_space_group_name_H-M    'P1'
_symmetry_Int_Tables_number       1
loop_
_symmetry_equiv_pos_site_id
_symmetry_equiv_pos_as_xyz
1 x,y,z
_cell_length_a                   31.6466
_cell_length_b                   5.79987
_cell_length_c                   5.99639
_cell_angle_alpha                90.0
_cell_angle_beta                 90.0
_cell_angle_gamma                90.0
loop_
_atom_site_label
_atom_site_type_symbol
_atom_site_fract_x
_atom_site_fract_y
_atom_site_fract_z
     1  Br         0.40566200       0.36333120       0.08461170
     2  Br         0.09433800       0.63666880       0.58461170
     3  Br         0.59433800       0.36333120       0.08461170
     4  Br         0.90566200       0.63666880       0.58461170
     5  O          0.40251180       0.91739000       0.40011000
     6  O          0.09748820       0.08261000       0.90011000
     7  O          0.59748820       0.91739000       0.40011000
     8  O          0.90251180       0.08261000       0.90011000
     9  O          0.31847190       0.55361000       0.30201100
    10  O          0.18152810       0.44639000       0.80201100
    11  O          0.68152810       0.55361000       0.30201100
    12  O          0.81847190       0.44639000       0.80201100
    13  N          0.36532000       0.24411200       0.29871200
    14  N          0.13468000       0.75588800       0.79871200
    15  N          0.63468000       0.24411200       0.29871200
    16  N          0.86532000       0.75588800       0.79871200
    17  C          0.37373000       0.05261500       0.42671400
    18  C          0.12627000       0.94738500       0.92671400
    19  C          0.62627000       0.05261500       0.42671400
    20  C          0.87373000       0.94738500       0.92671400
    21  C          0.33163000       0.37601600       0.38031400
    22  C          0.16837000       0.62398400       0.88031400
    23  C          0.66837000       0.37601600       0.38031400
    24  C          0.83163000       0.62398400       0.88031400
    25  C          0.31562000       0.24581200       0.57820000
    26  C          0.18438000       0.75418800       0.07820000
    27  C          0.68438000       0.24581200       0.57820000
    28  C          0.81562000       0.75418800       0.07820000
    29  C          0.28313000       0.29411500       0.72171500
    30  C          0.21687000       0.70588500       0.22171500
    31  C          0.71687000       0.29411500       0.72171500
    32  C          0.78313000       0.70588500       0.22171500
    33  H          0.26570700       0.42622500       0.70186200
    34  H          0.23429300       0.57377500       0.20186200
    35  H          0.73429300       0.42622500       0.70186200
    36  H          0.76570700       0.57377500       0.20186200
    37  C          0.34082000       0.04981300       0.60831900
    38  C          0.15918000       0.95018700       0.10831900
    39  C          0.65918000       0.04981300       0.60831900
    40  C          0.84082000       0.95018700       0.10831900
    41  C          0.33433000       0.90048600       0.77791500
    42  C          0.16567000       0.09951400       0.27791500
    43  C          0.66567000       0.90048600       0.77791500
    44  C          0.83433000       0.09951400       0.27791500
    45  H          0.35151200       0.76736300       0.79529200
    46  H          0.14848800       0.23263700       0.29529200
    47  H          0.64848800       0.76736300       0.79529200
    48  H          0.85151200       0.23263700       0.29529200
    49  C          0.27653000       0.14171500       0.89741400
    50  C          0.22347000       0.85828500       0.39741400
    51  C          0.72347000       0.14171500       0.89741400
    52  C          0.77653000       0.85828500       0.39741400
    53  H          0.25421500       0.17069300      -0.00005900
    54  H          0.24578500       0.82930700       0.49994100
    55  H          0.74578500       0.17069300      -0.00005900
    56  H          0.75421500       0.82930700       0.49994100
    57  C          0.30173000       0.94818500       0.92641500
    58  C          0.19827000       0.05181500       0.42641500
    59  C          0.69827000       0.94818500       0.92641500
    60  C          0.80173000       0.05181500       0.42641500
    61  H          0.29656800       0.84750200       0.04838400
    62  H          0.20343200       0.15249800       0.54838400
    63  H          0.70343200       0.84750200       0.04838400
    64  H          0.79656800       0.15249800       0.54838400
    65  N          0.46152000       0.51811100       0.86331100
    66  N          0.03848000       0.48188900       0.36331100
    67  N          0.53848000       0.51811100       0.86331100
    68  N          0.96152000       0.48188900       0.36331100
    69  N          0.50000000       0.86961800       0.78141700
    70  N          0.00000000       0.13038200       0.28141700
    71  N          0.50000000       0.55321600       0.51381400
    72  N          0.00000000       0.44678400       0.01381400
    73  C          0.46253000       0.77351400       0.88701500
    74  C          0.03747000       0.22648600       0.38701500
    75  C          0.53747000       0.77351400       0.88701500
    76  C          0.96253000       0.22648600       0.38701500
    77  H          0.43692500       0.84045200       0.81747700
    78  H          0.06307500       0.15954800       0.31747700
    79  H          0.56307500       0.84045200       0.81747700
    80  H          0.93692500       0.15954800       0.31747700
    81  H          0.46236000       0.81475500       0.04720500
    82  H          0.03764000       0.18524500       0.54720500
    83  H          0.53764000       0.81475500       0.04720500
    84  H          0.96236000       0.18524500       0.54720500
    85  C          0.46222000       0.46141300       0.62011600
    86  C          0.03778000       0.53858700       0.12011600
    87  C          0.53778000       0.46141300       0.62011600
    88  C          0.96222000       0.53858700       0.12011600
    89  H          0.46133200       0.29190300       0.60072300
    90  H          0.03866800       0.70809700       0.10072300
    91  H          0.53866800       0.29190300       0.60072300
    92  H          0.96133200       0.70809700       0.10072300
    93  H          0.43679100       0.52721600       0.54753200
    94  H          0.06320900       0.47278400       0.04753200
    95  H          0.56320900       0.52721600       0.54753200
    96  H          0.93679100       0.47278400       0.04753200
    97  C          0.50000000       0.80751900       0.54220000
    98  C          0.00000000       0.19248100       0.04220000
    99  H          0.52532200       0.87352800       0.46924900
   100  H          0.97467800       0.12647200       0.96924900
   101  H          0.47467800       0.87352800       0.46924900
   102  H          0.02532200       0.12647200       0.96924900
   103  C          0.50000000       0.42281900       0.96651900
   104  C          0.00000000       0.57718100       0.46651900
   105  H          0.50000000       0.45894500       0.12782700
   106  H          0.00000000       0.54105500       0.62782700
   107  H          0.50000000       0.25301700       0.94986600
   108  H          0.00000000       0.74698300       0.44986600
