data_UZUMUA
_symmetry_space_group_name_H-M    'P1'
_symmetry_Int_Tables_number       1
loop_
_symmetry_equiv_pos_site_id
_symmetry_equiv_pos_as_xyz
1 x,y,z
_cell_length_a                   6.009112
_cell_length_b                   14.4223
_cell_length_c                   13.6553
_cell_angle_alpha                90.0
_cell_angle_beta                 92.173
_cell_angle_gamma                90.0
loop_
_atom_site_label
_atom_site_type_symbol
_atom_site_fract_x
_atom_site_fract_y
_atom_site_fract_z
     1  Br         0.27458700       0.53652300       0.11106300
     2  Br         0.72541300       0.03652300       0.38893700
     3  Br         0.72541300       0.46347700       0.88893700
     4  Br         0.27458700       0.96347700       0.61106300
     5  Cl         0.09277180       0.66060700       0.02268700
     6  Cl         0.90722820       0.16060700       0.47731300
     7  Cl         0.90722820       0.33939300       0.97731300
     8  Cl         0.09277180       0.83939300       0.52268700
     9  Br         0.26210700       0.37465300       0.49695300
    10  Br         0.73789300       0.87465300       0.00304700
    11  Br         0.73789300       0.62534700       0.50304700
    12  Br         0.26210700       0.12534700      -0.00304700
    13  Cl         0.04917170       0.38647700       0.63871700
    14  Cl         0.95082830       0.88647700       0.86128300
    15  Cl         0.95082830       0.61352300       0.36128300
    16  Cl         0.04917170       0.11352300       0.13871700
    17  N          0.43155000       0.42932000       0.19792000
    18  N          0.56845000       0.92932000       0.30208000
    19  N          0.56845000       0.57068000       0.80208000
    20  N          0.43155000       0.07068000       0.69792000
    21  N          0.77665000       0.37492000       0.27422000
    22  N          0.22335000       0.87492000       0.22578000
    23  N          0.22335000       0.62508000       0.72578000
    24  N          0.77665000       0.12508000       0.77422000
    25  N          0.43365000       0.36492000       0.36062000
    26  N          0.56635000       0.86492000       0.13938000
    27  N          0.56635000       0.63508000       0.63938000
    28  N          0.43365000       0.13508000       0.86062000
    29  N          0.48866000       0.26502000       0.22112000
    30  N          0.51134000       0.76502000       0.27888000
    31  N          0.51134000       0.73498000       0.77888000
    32  N          0.48866000       0.23498000       0.72112000
    33  C          0.33097000       0.43643000       0.29483000
    34  C          0.66903000       0.93643000       0.20517000
    35  C          0.66903000       0.56357000       0.70517000
    36  C          0.33097000       0.06357000       0.79483000
    37  H          0.16801300       0.42643100       0.28802100
    38  H          0.83198700       0.92643100       0.21197900
    39  H          0.83198700       0.57356900       0.71197900
    40  H          0.16801300       0.07356900       0.78802100
    41  H          0.35769300       0.49897000       0.32277500
    42  H          0.64230700      -0.00103000       0.17722500
    43  H          0.64230700       0.50103000       0.67722500
    44  H          0.35769300       0.00103000       0.82277500
    45  C          0.68087000       0.38093000       0.37063000
    46  C          0.31913000       0.88093000       0.12937000
    47  C          0.31913000       0.61907000       0.62937000
    48  C          0.68087000       0.11907000       0.87063000
    49  H          0.71078500       0.44288000       0.39931500
    50  H          0.28921500       0.94288000       0.10068500
    51  H          0.28921500       0.55712000       0.60068500
    52  H          0.71078500       0.05712000       0.89931500
    53  H          0.74978600       0.33371800       0.41481700
    54  H          0.25021400       0.83371800       0.08518300
    55  H          0.25021400       0.66628200       0.58518300
    56  H          0.74978600       0.16628200       0.91481700
    57  C          0.39147000       0.27023000       0.31683000
    58  C          0.60853000       0.77023000       0.18317000
    59  C          0.60853000       0.72977000       0.68317000
    60  C          0.39147000       0.22977000       0.81683000
    61  H          0.45810700       0.22207300       0.36047200
    62  H          0.54189300       0.72207300       0.13952800
    63  H          0.54189300       0.77792700       0.63952800
    64  H          0.45810700       0.27792700       0.86047200
    65  H          0.22908500       0.25873400       0.31020600
    66  H          0.77091500       0.75873400       0.18979400
    67  H          0.77091500       0.74126600       0.68979400
    68  H          0.22908500       0.24126600       0.81020600
    69  C          0.38887000       0.33423000       0.15593000
    70  C          0.61113000       0.83423000       0.34407000
    71  C          0.61113000       0.66577000       0.84407000
    72  C          0.38887000       0.16577000       0.65593000
    73  H          0.22646600       0.32324400       0.14814000
    74  H          0.77353400       0.82324400       0.35186000
    75  H          0.77353400       0.67675600       0.85186000
    76  H          0.22646600       0.17675600       0.64814000
    77  H          0.45370400       0.32948600       0.09049200
    78  H          0.54629600       0.82948600       0.40950800
    79  H          0.54629600       0.67051400       0.90950800
    80  H          0.45370400       0.17051400       0.59049200
    81  C          0.73037000       0.28253000       0.23253000
    82  C          0.26963000       0.78253000       0.26747000
    83  C          0.26963000       0.71747000       0.76747000
    84  C          0.73037000       0.21747000       0.73253000
    85  H          0.79911200       0.23459900       0.27590500
    86  H          0.20088800       0.73459900       0.22409500
    87  H          0.20088800       0.76540100       0.72409500
    88  H          0.79911200       0.26540100       0.77590500
    89  H          0.79822400       0.27763100       0.16776100
    90  H          0.20177600       0.77763100       0.33223900
    91  H          0.20177600       0.72236900       0.83223900
    92  H          0.79822400       0.22236900       0.66776100
    93  C          0.67777000       0.44543000       0.20863000
    94  C          0.32223000       0.94543000       0.29137000
    95  C          0.32223000       0.55457000       0.79137000
    96  C          0.67777000       0.05457000       0.70863000
    97  H          0.74508200       0.44158700       0.14364900
    98  H          0.25491800       0.94158700       0.35635100
    99  H          0.25491800       0.55841300       0.85635100
   100  H          0.74508200       0.05841300       0.64364900
   101  H          0.70729900       0.50795400       0.23586800
   102  H          0.29270100       0.00795400       0.26413200
   103  H          0.29270100       0.49204600       0.76413200
   104  H          0.70729900      -0.00795400       0.73586800
