data_UZUNEL
_symmetry_space_group_name_H-M    'P1'
_symmetry_Int_Tables_number       1
loop_
_symmetry_equiv_pos_site_id
_symmetry_equiv_pos_as_xyz
1 x,y,z
_cell_length_a                   5.960612
_cell_length_b                   13.6463
_cell_length_c                   11.9892
_cell_angle_alpha                90.0
_cell_angle_beta                 98.563
_cell_angle_gamma                90.0
loop_
_atom_site_label
_atom_site_type_symbol
_atom_site_fract_x
_atom_site_fract_y
_atom_site_fract_z
     1  I          0.22404600       0.41571300       0.38449300
     2  I          0.77595400       0.91571300       0.11550700
     3  I          0.77595400       0.58428700       0.61550700
     4  I          0.22404600       0.08428700       0.88449300
     5  Cl         0.96617000       0.54198100       0.26594120
     6  Cl         0.03383000       0.04198100       0.23405880
     7  Cl         0.03383000       0.45801900       0.73405880
     8  Cl         0.96617000       0.95801900       0.76594120
     9  N          0.46079000       0.11604000       0.48444000
    10  N          0.53921000       0.61604000       0.01556000
    11  N          0.53921000       0.88396000       0.51556000
    12  N          0.46079000       0.38396000       0.98444000
    13  N          0.53279000       0.21034000       0.65854000
    14  N          0.46721000       0.71034000       0.84146000
    15  N          0.46721000       0.78966000       0.34146000
    16  N          0.53279000       0.28966000       0.15854000
    17  N          0.43138000       0.29343000       0.47824000
    18  N          0.56862000       0.79343000       0.02176000
    19  N          0.56862000       0.70657000       0.52176000
    20  N          0.43138000       0.20657000       0.97824000
    21  N          0.80278000       0.21634000       0.52334000
    22  N          0.19722000       0.71634000       0.97666000
    23  N          0.19722000       0.78366000       0.47666000
    24  N          0.80278000       0.28366000       0.02334000
    25  C          0.41061000       0.29334000       0.60185000
    26  C          0.58939000       0.79334000       0.89815000
    27  C          0.58939000       0.70666000       0.39815000
    28  C          0.41061000       0.20666000       0.10185000
    29  H          0.47194300       0.35386500       0.63599800
    30  H          0.52805700       0.85386500       0.86400200
    31  H          0.52805700       0.64613500       0.36400200
    32  H          0.47194300       0.14613500       0.13599800
    33  H          0.25182700       0.28949000       0.61085600
    34  H          0.74817300       0.78949000       0.88914400
    35  H          0.74817300       0.71051000       0.38914400
    36  H          0.25182700       0.21051000       0.11085600
    37  C          0.70091100       0.12425000       0.47345000
    38  C          0.29908900       0.62425000       0.02655000
    39  C          0.29908900       0.87575000       0.52655000
    40  C          0.70091100       0.37575000       0.97345000
    41  H          0.71731800       0.12180800       0.39412200
    42  H          0.28268200       0.62180800       0.10587800
    43  H          0.28268200       0.87819200       0.60587800
    44  H          0.71731800       0.37819200       0.89412200
    45  H          0.78231100       0.06875200       0.51050700
    46  H          0.21768900       0.56875200      -0.01050700
    47  H          0.21768900       0.93124800       0.48949300
    48  H          0.78231100       0.43124800       0.01050700
    49  C          0.43951100       0.11895000       0.60545000
    50  C          0.56048900       0.61895000       0.89455000
    51  C          0.56048900       0.88105000       0.39455000
    52  C          0.43951100       0.38105000       0.10545000
    53  H          0.28075800       0.11335600       0.61412000
    54  H          0.71924200       0.61335600       0.88588000
    55  H          0.71924200       0.88664400       0.38588000
    56  H          0.28075800       0.38664400       0.11412000
    57  H          0.51951500       0.06348000       0.64330000
    58  H          0.48048500       0.56348000       0.85670000
    59  H          0.48048500       0.93652000       0.35670000
    60  H          0.51951500       0.43652000       0.14330000
    61  C          0.68089000       0.29974000       0.46735000
    62  C          0.31911000       0.79974000       0.03265000
    63  C          0.31911000       0.70026000       0.53265000
    64  C          0.68089000       0.20026000       0.96735000
    65  H          0.69848700       0.30013900       0.38817600
    66  H          0.30151300       0.80013900       0.11182400
    67  H          0.30151300       0.69986100       0.61182400
    68  H          0.69848700       0.19986100       0.88817600
    69  H          0.74372400       0.36014900       0.50111800
    70  H          0.25627600       0.86014900      -0.00111800
    71  H          0.25627600       0.63985100       0.49888200
    72  H          0.74372400       0.13985100       0.00111800
    73  C          0.77151000       0.21745000       0.64295000
    74  C          0.22849000       0.71745000       0.85705000
    75  C          0.22849000       0.78255000       0.35705000
    76  C          0.77151000       0.28255000       0.14295000
    77  H          0.85455700       0.16297200       0.68142100
    78  H          0.14544300       0.66297200       0.81857900
    79  H          0.14544300       0.83702800       0.31857900
    80  H          0.85455700       0.33702800       0.18142100
    81  H          0.83502500       0.27750600       0.67743100
    82  H          0.16497500       0.77750600       0.82256900
    83  H          0.16497500       0.72249400       0.32256900
    84  H          0.83502500       0.22249400       0.17743100
    85  C          0.33961000       0.19714000       0.42865000
    86  C          0.66039000       0.69714000       0.07135000
    87  C          0.66039000       0.80286000       0.57135000
    88  C          0.33961000       0.30286000       0.92865000
    89  H          0.18016100       0.19173900       0.43583300
    90  H          0.81983900       0.69173900       0.06416700
    91  H          0.81983900       0.80826100       0.56416700
    92  H          0.18016100       0.30826100       0.93583300
    93  H          0.35263400       0.19533800       0.34891700
    94  H          0.64736600       0.69533800       0.15108300
    95  H          0.64736600       0.80466200       0.65108300
    96  H          0.35263400       0.30466200       0.84891700
