data_UZUYIZ
_symmetry_space_group_name_H-M    'P1'
_symmetry_Int_Tables_number       1
loop_
_symmetry_equiv_pos_site_id
_symmetry_equiv_pos_as_xyz
1 x,y,z
_cell_length_a                   7.602115
_cell_length_b                   8.453817
_cell_length_c                   15.3753
_cell_angle_alpha                88.993
_cell_angle_beta                 84.053
_cell_angle_gamma                64.753
loop_
_atom_site_label
_atom_site_type_symbol
_atom_site_fract_x
_atom_site_fract_y
_atom_site_fract_z
     1  O          0.93288150       0.85226130       0.23162600
     2  O          0.06711850       0.14773870       0.76837400
     3  N          0.77690160       0.63686140       0.19267700
     4  N          0.22309840       0.36313860       0.80732300
     5  C          0.74740150       0.55465150       0.04623700
     6  C          0.25259850       0.44534850       0.95376300
     7  O          0.88541160       0.94907140       0.36922600
     8  O          0.11458840       0.05092860       0.63077400
     9  H          0.96140000      -0.00740000       0.34910000
    10  H          0.03860000       0.00740000       0.65090000
    11  C          0.72635160       0.77680140       0.33511700
    12  C          0.27364840       0.22319860       0.66488300
    13  H          0.84620000       0.69820000       0.17751100
    14  H          0.15380000       0.30180000       0.82248900
    15  C          0.75967150       0.42546160       0.98659200
    16  C          0.24032850       0.57453840       0.01340800
    17  C          0.78127160       0.50911150       0.13294700
    18  C          0.21872840       0.49088850       0.86705300
    19  C          0.68887160       0.66913140       0.27698700
    20  C          0.31112840       0.33086860       0.72301300
    21  C          0.54976180       0.60615150       0.30710800
    22  C          0.45023820       0.39384850       0.69289200
    23  H          0.52120000       0.53470000       0.26920000
    24  H          0.47880000       0.46530000       0.73080000
    25  C          0.82653170       0.33916160       0.15942800
    26  C          0.17346830       0.66083840       0.84057200
    27  H          0.85060000       0.30940000       0.21830000
    28  H          0.14940000       0.69060000       0.78170000
    29  C          0.85811170       0.86047150       0.30668800
    30  C          0.14188830       0.13952850       0.69331200
    31  C          0.62827180       0.81340160       0.41939800
    32  C          0.37172820       0.18659840       0.58060200
    33  H          0.65500000       0.88460000       0.45830000
    34  H          0.34500000       0.11540000       0.54170000
    35  C          0.80384180       0.25699160       0.01462900
    36  C          0.19615820       0.74300840       0.98537100
    37  H          0.81170000       0.17010000       0.97410000
    38  H          0.18830000       0.82990000       0.02590000
    39  C          0.45488190       0.64628170       0.39020900
    40  C          0.54511810       0.35371830       0.60979100
    41  H          0.36100000       0.60280000       0.40860000
    42  H          0.63900000       0.39720000       0.59140000
    43  C          0.83660180       0.21329160       0.10028900
    44  C          0.16339820       0.78670840       0.89971100
    45  H          0.86590000       0.09760000       0.11850000
    46  H          0.13410000       0.90240000       0.88150000
    47  C          0.69770190       0.73804160       0.01700800
    48  C          0.30229810       0.26195840       0.98299200
    49  H          0.67530000       0.81460000       0.06810000
    50  H          0.32470000       0.18540000       0.93190000
    51  H          0.57910000       0.78010000       0.98690000
    52  H          0.42090000       0.21990000       0.01310000
    53  H          0.80620000       0.73900000       0.97700000
    54  H          0.19380000       0.26100000       0.02300000
    55  C          0.49362000       0.74934170       0.44798900
    56  C          0.50638000       0.25065830       0.55201100
    57  H          0.42890000       0.77500000       0.50570000
    58  H          0.57110000       0.22500000       0.49430000
    59  C          0.72063190       0.47052000       0.89336200
    60  C          0.27936810       0.52948000       0.10663800
    61  H          0.74490000       0.36420000       0.85990000
    62  H          0.25510000       0.63580000       0.14010000
    63  H          0.80740000       0.52140000       0.86750000
    64  H          0.19260000       0.47860000       0.13250000
    65  H          0.58410000       0.55520000       0.89190000
    66  H          0.41590000       0.44480000       0.10810000
    67  N          0.12083150       0.09333130       0.31868700
    68  N          0.87916850       0.90666870       0.68131300
    69  C          0.11804180       0.22465160       0.36674800
    70  C          0.88195820       0.77534840       0.63325200
    71  C          0.25492000       0.02909170       0.24974900
    72  C          0.74508000       0.97090830       0.75025100
    73  H          0.25460000       0.93680000       0.21540000
    74  H          0.74540000       0.06320000       0.78460000
    75  C          0.25522000       0.29112190       0.34653100
    76  C          0.74478000       0.70887810       0.65346900
    77  H          0.25310000       0.38380000       0.38140000
    78  H          0.74690000       0.61620000       0.61860000
    79  C          0.39332000       0.09044180       0.22616100
    80  C          0.60668000       0.90955820       0.77383900
    81  H          0.48620000       0.04230000       0.17650000
    82  H          0.51380000       0.95770000       0.82350000
    83  C          0.96192000       0.29462000       0.44185100
    84  C          0.03808000       0.70538000       0.55814900
    85  H          0.83400000       0.35290000       0.41960000
    86  H          0.16600000       0.64710000       0.58040000
    87  H          0.98500000       0.37870000       0.47650000
    88  H          0.01500000       0.62130000       0.52350000
    89  H          0.96440000       0.19800000       0.47870000
    90  H          0.03560000       0.80200000       0.52130000
    91  C          0.39402000       0.22282000       0.27613110
    92  C          0.60598000       0.77718000       0.72386890
    93  H          0.48940000       0.26660000       0.26220000
    94  H          0.51060000       0.73340000       0.73780000
