data_VAFKIA
_symmetry_space_group_name_H-M    'P1'
_symmetry_Int_Tables_number       1
loop_
_symmetry_equiv_pos_site_id
_symmetry_equiv_pos_as_xyz
1 x,y,z
_cell_length_a                   7.77414
_cell_length_b                   11.21336
_cell_length_c                   13.23797
_cell_angle_alpha                71.46601
_cell_angle_beta                 74.53801
_cell_angle_gamma                81.45701
loop_
_atom_site_label
_atom_site_type_symbol
_atom_site_fract_x
_atom_site_fract_y
_atom_site_fract_z
     1  Br         0.77972400       0.13355300       0.18974300
     2  Br         0.22027600       0.86644700       0.81025700
     3  O          0.49312000       0.42496160       0.13830140
     4  O          0.50688000       0.57503840       0.86169860
     5  H          0.54160000       0.41740000       0.07130000
     6  H          0.45840000       0.58260000       0.92870000
     7  O          0.35002000       0.60041150       0.05287130
     8  O          0.64998000       0.39958850       0.94712870
     9  O          0.91297000       0.80302000       0.06939170
    10  O          0.08703000       0.19698000       0.93060830
    11  O          0.94348000       0.60790180       0.18042140
    12  O          0.05652000       0.39209820       0.81957860
    13  N          0.15793000       0.64088180       0.36874150
    14  N          0.84207000       0.35911820       0.63125850
    15  H          0.10030000       0.69320000       0.39420000
    16  H          0.89970000       0.30680000       0.60580000
    17  C          0.20003000       0.65052000       0.26030170
    18  C          0.79997000       0.34948000       0.73969830
    19  C          0.31503000       0.54822000       0.24364170
    20  C          0.68497000       0.45178000       0.75635830
    21  C          0.44813000       0.36122000       0.38561190
    22  C          0.55187000       0.63878000       0.61438810
    23  H          0.51941300       0.31816100       0.33585200
    24  H          0.48058700       0.68183900       0.66414800
    25  C          0.44323000       0.31572000       0.49544190
    26  C          0.55677000       0.68428000       0.50455810
    27  H          0.51216600       0.24020800       0.52161500
    28  H          0.48783400       0.75979200       0.47838500
    29  C          0.33863000       0.37812000       0.57000190
    30  C          0.66137000       0.62188000       0.42999810
    31  H          0.33836900       0.34394200       0.64553600
    32  H          0.66163100       0.65605800       0.35446400
    33  C          0.23723000       0.48672000       0.53645180
    34  C          0.76277000       0.51328000       0.46354820
    35  H          0.16553400       0.52857200       0.58708300
    36  H          0.83446600       0.47142800       0.41291700
    37  C          0.24303000       0.53372000       0.42495170
    38  C          0.75697000       0.46628000       0.57504830
    39  C          0.34553000       0.47262000       0.34848170
    40  C          0.65447000       0.52738000       0.65151830
    41  C          0.38813000       0.52492000       0.13856180
    42  C          0.61187000       0.47508000       0.86143820
    43  C          0.98377000       0.72813000       0.13642000
    44  C          0.01623000       0.27187000       0.86358000
    45  C          0.12463000       0.75652000       0.18145180
    46  C          0.87537000       0.24348000       0.81854820
    47  C          0.17683000       0.87432000       0.14277190
    48  C          0.82317000       0.12568000       0.85722810
    49  H          0.10890100       0.93134200       0.09542000
    50  H          0.89109900       0.06865800       0.90458000
    51  C          0.31943000       0.93042000       0.16046180
    52  C          0.68057000       0.06958000       0.83953820
    53  C          0.43893000       0.86662000       0.22492000
    54  C          0.56107000       0.13338000       0.77508000
    55  H          0.42623500       0.78003500       0.26423400
    56  H          0.57376500       0.21996500       0.73576600
    57  C          0.57563000       0.92662000       0.23272000
    58  C          0.42437000       0.07338000       0.76728000
    59  H          0.65637200       0.88152300       0.27663500
    60  H          0.34362800       0.11847700       0.72336500
    61  C          0.59393000       0.05192000       0.17642000
    62  C          0.40607000       0.94808000       0.82358000
    63  C          0.48024000       0.11782000       0.11132000
    64  C          0.51976000       0.88218000       0.88868000
    65  H          0.49521800       0.20410800       0.07180200
    66  H          0.50478200       0.79589200       0.92819800
    67  C          0.34334000       0.05772000       0.10382000
    68  C          0.65666000       0.94228000       0.89618000
    69  H          0.26387800       0.10364100       0.05914200
    70  H          0.73612200       0.89635900       0.94085800
    71  C          0.81246000       0.57003000       0.13943000
    72  C          0.18754000       0.42997000       0.86057000
    73  H          0.70187900       0.62401200       0.14982400
    74  H          0.29812100       0.37598800       0.85017600
    75  H          0.78785000       0.48205600       0.17941000
    76  H          0.21215000       0.51794400       0.82059000
    77  H          0.85888800       0.57832600       0.06121500
    78  H          0.14111200       0.42167400       0.93878500
    79  O          0.03664000       0.17573000       0.52743000
    80  O          0.96336000       0.82427000       0.47257000
    81  C          0.12414000       0.14993000       0.44643000
    82  C          0.87586000       0.85007000       0.55357000
    83  C          0.09386000       0.21855000       0.33714000
    84  C          0.90614000       0.78145000       0.66286000
    85  H          0.19326900       0.27153600       0.29473800
    86  H          0.80673100       0.72846400       0.70526200
    87  H          0.98172800       0.27158300       0.34454800
    88  H          0.01827200       0.72841700       0.65545200
    89  H          0.08606700       0.15797200       0.29918800
    90  H          0.91393300       0.84202800       0.70081200
    91  C          0.26675000       0.04753000       0.45313000
    92  C          0.73325000       0.95247000       0.54687000
    93  H          0.23985200       0.98327900       0.42478400
    94  H          0.76014800       0.01672100       0.57521600
    95  H          0.27395500       0.00946800       0.52962300
    96  H          0.72604500       0.99053200       0.47037700
    97  H          0.38127700       0.08155900       0.40926000
    98  H          0.61872300       0.91844100       0.59074000
