data_VAFRUP
_symmetry_space_group_name_H-M    'P1'
_symmetry_Int_Tables_number       1
loop_
_symmetry_equiv_pos_site_id
_symmetry_equiv_pos_as_xyz
1 x,y,z
_cell_length_a                   10.9484
_cell_length_b                   19.8698
_cell_length_c                   13.8866
_cell_angle_alpha                90.0
_cell_angle_beta                 110.553
_cell_angle_gamma                90.0
loop_
_atom_site_label
_atom_site_type_symbol
_atom_site_fract_x
_atom_site_fract_y
_atom_site_fract_z
     1  C          0.51946000       0.17933000       0.01465000
     2  C          0.98054000       0.67933000       0.48535000
     3  C          0.48054000       0.82067000       0.98535000
     4  C          0.01946000       0.32067000       0.51465000
     5  C          0.40998000       0.19124000       0.93136000
     6  C          0.09002000       0.69124000       0.56864000
     7  C          0.59002000       0.80876000       0.06864000
     8  C          0.90998000       0.30876000       0.43136000
     9  C          0.41338000       0.20224000       0.83566000
    10  C          0.08662000       0.70224000       0.66434000
    11  C          0.58662000       0.79776000       0.16434000
    12  C          0.91338000       0.29776000       0.33566000
    13  N          0.52887000       0.20253000       0.82134000
    14  N          0.97113000       0.70253000       0.67866000
    15  N          0.47113000       0.79747000       0.17866000
    16  N          0.02887000       0.29747000       0.32134000
    17  C          0.64028000       0.19594000       0.90086000
    18  C          0.85972000       0.69594000       0.59914000
    19  C          0.35972000       0.80406000       0.09914000
    20  C          0.14028000       0.30406000       0.40086000
    21  C          0.64017000       0.18364000      -0.00205000
    22  C          0.85983000       0.68364000       0.50205000
    23  C          0.35983000       0.81636000       0.00205000
    24  C          0.14017000       0.31636000       0.49795000
    25  C          0.53228000       0.20553000       0.71475000
    26  C          0.96772000       0.70553000       0.78525000
    27  C          0.46772000       0.79447000       0.28525000
    28  C          0.03228000       0.29447000       0.21475000
    29  C          0.52637000       0.13453000       0.67525000
    30  C          0.97363000       0.63453000       0.82475000
    31  C          0.47363000       0.86547000       0.32475000
    32  C          0.02637000       0.36547000       0.17525000
    33  C          0.64007000       0.09694000       0.69755000
    34  C          0.85993000       0.59694000       0.80245000
    35  C          0.35993000       0.90306000       0.30245000
    36  C          0.14007000       0.40306000       0.19755000
    37  C          0.63437000       0.02974000       0.67315000
    38  C          0.86563000       0.52974000       0.82685000
    39  C          0.36563000       0.97026000       0.32685000
    40  C          0.13437000       0.47026000       0.17315000
    41  C          0.51647000      -0.00143000       0.62595000
    42  C         -0.01647000       0.49857000       0.87405000
    43  C          0.48353000       0.00143000       0.37405000
    44  C          0.01647000       0.50143000       0.12595000
    45  C          0.40378000       0.03704000       0.59885000
    46  C          0.09622000       0.53704000       0.90115000
    47  C          0.59622000       0.96296000       0.40115000
    48  C          0.90378000       0.46296000       0.09885000
    49  C          0.40787000       0.10344000       0.62225000
    50  C          0.09213000       0.60344000       0.87775000
    51  C          0.59213000       0.89656000       0.37775000
    52  C          0.90787000       0.39656000       0.12225000
    53  C          0.51198000       0.92347000       0.61085000
    54  C         -0.01198000       0.42347000       0.88915000
    55  C          0.48802000       0.07653000       0.38915000
    56  C          0.01198000       0.57653000       0.11085000
    57  N          0.50145000       0.89017000       0.70394000
    58  N         -0.00145000       0.39017000       0.79606000
    59  N          0.49855000       0.10983000       0.29606000
    60  N          0.00145000       0.60983000       0.20394000
    61  C          0.60877000       0.86906000       0.77836000
    62  C          0.89123000       0.36906000       0.72164000
    63  C          0.39123000       0.13094000       0.22164000
    64  C          0.10877000       0.63094000       0.27836000
    65  C          0.60427000       0.84466000       0.86695000
    66  C          0.89573000       0.34466000       0.63305000
    67  C          0.39573000       0.15534000       0.13305000
    68  C          0.10427000       0.65534000       0.36695000
    69  C          0.51636000       0.15923000       0.11615000
    70  C         -0.01636000       0.65923000       0.38385000
    71  C          0.48364000       0.84077000       0.88385000
    72  C          0.01636000       0.34077000       0.61615000
    73  C          0.62517000       0.13974000       0.19725000
    74  C          0.87483000       0.63974000       0.30275000
    75  C          0.37483000       0.86026000       0.80275000
    76  C          0.12517000       0.36026000       0.69725000
    77  C          0.38497000       0.88386000       0.71516000
    78  C          0.11503000       0.38386000       0.78484000
    79  C          0.61503000       0.11614000       0.28484000
    80  C          0.88497000       0.61614000       0.21516000
    81  H          0.32720000       0.19160000       0.94070000
    82  H          0.17280000       0.69160000       0.55930000
    83  H          0.67280000       0.80840000       0.05930000
    84  H          0.82720000       0.30840000       0.44070000
    85  H          0.33380000       0.21010000       0.77880000
    86  H          0.16620000       0.71010000       0.72120000
    87  H          0.66620000       0.78990000       0.22120000
    88  H          0.83380000       0.28990000       0.27880000
    89  H          0.72170000       0.19980000       0.88980000
    90  H          0.77830000       0.69980000       0.61020000
    91  H          0.27830000       0.80020000       0.11020000
    92  H          0.22170000       0.30020000       0.38980000
    93  H          0.72090000       0.17790000       0.05420000
    94  H          0.77910000       0.67790000       0.44580000
    95  H          0.27910000       0.82210000       0.94580000
    96  H          0.22090000       0.32210000       0.55420000
    97  H          0.45840000       0.23040000       0.67120000
    98  H          0.04160000       0.73040000       0.82880000
    99  H          0.54160000       0.76960000       0.32880000
   100  H          0.95840000       0.26960000       0.17120000
   101  H          0.61110000       0.22690000       0.71540000
   102  H          0.88890000       0.72690000       0.78460000
   103  H          0.38890000       0.77310000       0.28460000
   104  H          0.11110000       0.27310000       0.21540000
   105  H          0.72310000       0.11830000       0.72940000
   106  H          0.77690000       0.61830000       0.77060000
   107  H          0.27690000       0.88170000       0.27060000
   108  H          0.22310000       0.38170000       0.22940000
   109  H          0.71330000       0.00400000       0.68990000
   110  H          0.78670000       0.50400000       0.81010000
   111  H          0.28670000      -0.00400000       0.31010000
   112  H          0.21330000       0.49600000       0.18990000
   113  H          0.32120000       0.01600000       0.56320000
   114  H          0.17880000       0.51600000       0.93680000
   115  H          0.67880000       0.98400000       0.43680000
   116  H          0.82120000       0.48400000       0.06320000
   117  H          0.32870000       0.12920000       0.60200000
   118  H          0.17130000       0.62920000       0.89800000
   119  H          0.67130000       0.87080000       0.39800000
   120  H          0.82870000       0.37080000       0.10200000
   121  H          0.59000000       0.90890000       0.60050000
   122  H          0.91000000       0.40890000       0.89950000
   123  H          0.41000000       0.09110000       0.39950000
   124  H          0.09000000       0.59110000       0.10050000
   125  H          0.43750000       0.91180000       0.55170000
   126  H          0.06250000       0.41180000       0.94830000
   127  H          0.56250000       0.08820000       0.44830000
   128  H          0.93750000       0.58820000       0.05170000
   129  H          0.69100000       0.87150000       0.76820000
   130  H          0.80900000       0.37150000       0.73180000
   131  H          0.30900000       0.12850000       0.23180000
   132  H          0.19100000       0.62850000       0.26820000
   133  H          0.68310000       0.82990000       0.91930000
   134  H          0.81690000       0.32990000       0.58070000
   135  H          0.31690000       0.17010000       0.08070000
   136  H          0.18310000       0.67010000       0.41930000
   137  H          0.70960000       0.14300000       0.19100000
   138  H          0.79040000       0.64300000       0.30900000
   139  H          0.29040000       0.85700000       0.80900000
   140  H          0.20960000       0.35700000       0.69100000
   141  H          0.30740000       0.89670000       0.65960000
   142  H          0.19260000       0.39670000       0.84040000
   143  H          0.69260000       0.10330000       0.34040000
   144  H          0.80740000       0.60330000       0.15960000
   145  C          0.16861100       0.99004000       0.01989000
   146  C          0.33138900       0.49004000       0.48011000
   147  C          0.83138900       0.00996000       0.98011000
   148  C          0.66861100       0.50996000       0.51989000
   149  O          0.30798000       0.98036000       0.08065000
   150  O          0.19202000       0.48036000       0.41935000
   151  O          0.69202000       0.01964000       0.91935000
   152  O          0.80798000       0.51964000       0.58065000
   153  C          0.39491300       0.98996000       0.03987000
   154  C          0.10508700       0.48996000       0.46013000
   155  C          0.60508700       0.01004000       0.96013000
   156  C          0.89491300       0.51004000       0.53987000
   157  C          0.36941100       0.01014000       0.93667000
   158  C          0.13058900       0.51014000       0.56333000
   159  C          0.63058900       0.98986000       0.06333000
   160  C          0.86941100       0.48986000       0.43667000
   161  C          0.52201200       0.97965000       0.10117000
   162  C          0.97798800       0.47965000       0.39883000
   163  C          0.47798800       0.02035000       0.89883000
   164  C          0.02201200       0.52035000       0.60117000
   165  H          0.16820000       0.03680000       0.00190000
   166  H          0.33180000       0.53680000       0.49810000
   167  H          0.83180000       0.96320000      -0.00190000
   168  H          0.66820000       0.46320000       0.50190000
   169  H          0.09170000       0.98010000       0.03530000
   170  H          0.40830000       0.48010000       0.46470000
   171  H          0.90830000       0.01990000       0.96470000
   172  H          0.59170000       0.51990000       0.53530000
   173  H          0.16990000       0.96280000       0.96320000
   174  H          0.33010000       0.46280000       0.53680000
   175  H          0.83010000       0.03720000       0.03680000
   176  H          0.66990000       0.53720000       0.46320000
   177  H          0.28130000       0.01700000       0.89090000
   178  H          0.21870000       0.51700000       0.60910000
   179  H          0.71870000       0.98300000       0.10910000
   180  H          0.78130000       0.48300000       0.39090000
   181  H          0.54050000       0.96530000       0.17080000
   182  H          0.95950000       0.46530000       0.32920000
   183  H          0.45950000       0.03470000       0.82920000
   184  H          0.04050000       0.53470000       0.67080000
   185  N          0.13799000       0.18795000       0.65067000
   186  N          0.36201000       0.68795000       0.84933000
   187  N          0.86201000       0.81205000       0.34933000
   188  N          0.63799000       0.31205000       0.15067000
   189  C          0.05061200       0.15455000       0.63368000
   190  C          0.44938800       0.65455000       0.86632000
   191  C          0.94938800       0.84545000       0.36632000
   192  C          0.55061200       0.34545000       0.13368000
   193  C          0.93778500       0.11557000       0.61071200
   194  C          0.56221500       0.61557000       0.88928800
   195  C          0.06221500       0.88443000       0.38928800
   196  C          0.43778500       0.38443000       0.11071200
   197  H          0.94820000       0.08900000       0.67090000
   198  H          0.55180000       0.58900000       0.82910000
   199  H          0.05180000       0.91100000       0.32910000
   200  H          0.44820000       0.41100000       0.17090000
   201  H          0.95120000       0.08750000       0.55890000
   202  H          0.54880000       0.58750000       0.94110000
   203  H          0.04880000       0.91250000       0.44110000
   204  H          0.45120000       0.41250000       0.05890000
   205  H          0.85140000       0.13400000       0.58500000
   206  H          0.64860000       0.63400000       0.91500000
   207  H          0.14860000       0.86600000       0.41500000
   208  H          0.35140000       0.36600000       0.08500000
   209  P          0.48132000       0.71329000       0.56582000
   210  P          0.01868000       0.21329000       0.93418000
   211  P          0.51868000       0.28671000       0.43418000
   212  P          0.98132000       0.78671000       0.06582000
   213  F          0.39016000       0.65527000       0.57846000
   214  F          0.10984000       0.15527000       0.92154000
   215  F          0.60984000       0.34473000       0.42154000
   216  F          0.89016000       0.84473000       0.07846000
   217  F          0.39538000       0.75716000       0.60171100
   218  F          0.10462000       0.25716000       0.89828900
   219  F          0.60462000       0.24284000       0.39828900
   220  F          0.89538000       0.74284000       0.10171100
   221  F          0.57747000       0.70834000       0.66925000
   222  F          0.92253000       0.20834000       0.83075000
   223  F          0.42253000       0.29166000       0.33075000
   224  F          0.07747000       0.79166000       0.16925000
   225  F          0.56486000       0.77196000       0.55127000
   226  F          0.93514000       0.27196000       0.94873000
   227  F          0.43514000       0.22804000       0.44873000
   228  F          0.06486000       0.72804000       0.05127000
   229  F          0.56297000       0.66705000       0.53211000
   230  F          0.93703000       0.16705000       0.96789000
   231  F          0.43703000       0.33295000       0.46789000
   232  F          0.06297000       0.83295000       0.03211000
   233  F          0.38707000       0.71783000       0.45936000
   234  F          0.11293000       0.21783000       0.04064000
   235  F          0.61293000       0.28217000       0.54064000
   236  F          0.88707000       0.78217000       0.95936000
   237  P          0.52132000       0.40371000       0.81472000
   238  P          0.97868000       0.90371000       0.68528000
   239  P          0.47868000       0.59629000       0.18528000
   240  P          0.02132000       0.09629000       0.31472000
   241  F          0.40285000       0.44893000       0.80436000
   242  F          0.09715000       0.94893000       0.69564000
   243  F          0.59715000       0.55107000       0.19564000
   244  F          0.90285000       0.05107000       0.30436000
   245  F          0.60895000       0.44553000       0.90874000
   246  F          0.89105000       0.94553000       0.59126000
   247  F          0.39105000       0.55447000       0.09126000
   248  F          0.10895000       0.05447000       0.40874000
   249  F          0.47478000       0.35574000       0.88215000
   250  F          0.02522000       0.85574000       0.61785000
   251  F          0.52522000       0.64426000       0.11785000
   252  F          0.97478000       0.14426000       0.38215000
   253  F          0.64036000       0.35694000       0.82236000
   254  F          0.85964000       0.85694000       0.67764000
   255  F          0.35964000       0.64306000       0.17764000
   256  F          0.14036000       0.14306000       0.32236000
   257  F          0.56617000       0.45054000       0.74555000
   258  F          0.93383000       0.95054000       0.75445000
   259  F          0.43383000       0.54946000       0.25445000
   260  F          0.06617000       0.04946000       0.24555000
   261  F          0.43385000       0.36073000       0.71974000
   262  F          0.06615000       0.86073000       0.78026000
   263  F          0.56615000       0.63927000       0.28026000
   264  F          0.93385000       0.13927000       0.21974000
