data_VAFRIE
_symmetry_space_group_name_H-M    'P1'
_symmetry_Int_Tables_number       1
loop_
_symmetry_equiv_pos_site_id
_symmetry_equiv_pos_as_xyz
1 x,y,z
_cell_length_a                   10.4621
_cell_length_b                   10.5761
_cell_length_c                   11.8771
_cell_angle_alpha                110.131
_cell_angle_beta                 92.231
_cell_angle_gamma                112.601
loop_
_atom_site_label
_atom_site_type_symbol
_atom_site_fract_x
_atom_site_fract_y
_atom_site_fract_z
     1  P          0.63220000       0.38900000       0.28620000
     2  P          0.36780000       0.61100000       0.71380000
     3  O          0.52940000       0.37150000       0.36850000
     4  O          0.47060000       0.62850000       0.63150000
     5  N          0.73830000       0.30730000       0.27930000
     6  N          0.26170000       0.69270000       0.72070000
     7  N          0.73690000       0.56560000       0.33180000
     8  N          0.26310000       0.43440000       0.66820000
     9  N          0.54780000       0.31760000       0.14540000
    10  N          0.45220000       0.68240000       0.85460000
    11  C          0.60450000       0.27810000       0.03520000
    12  C          0.39550000       0.72190000       0.96480000
    13  H          0.60520000       0.18140000       0.01500000
    14  H          0.39480000       0.81860000       0.98500000
    15  H          0.70040000       0.35090000       0.04690000
    16  H          0.29960000       0.64910000       0.95310000
    17  C          0.41290000       0.31990000       0.11430000
    18  C          0.58710000       0.68010000       0.88570000
    19  H          0.42110000       0.42100000       0.14640000
    20  H          0.57890000       0.57900000       0.85360000
    21  H          0.34120000       0.26130000       0.14780000
    22  H          0.65880000       0.73870000       0.85220000
    23  C          0.87160000       0.36970000       0.36460000
    24  C          0.12840000       0.63030000       0.63540000
    25  H          0.86840000       0.43540000       0.44390000
    26  H          0.13160000       0.56460000       0.55610000
    27  H          0.94920000       0.42560000       0.33410000
    28  H          0.05080000       0.57440000       0.66590000
    29  C          0.68420000       0.14410000       0.22810000
    30  C          0.31580000       0.85590000       0.77190000
    31  H          0.59240000       0.09900000       0.24710000
    32  H          0.40760000       0.90100000       0.75290000
    33  H          0.67580000       0.10590000       0.13990000
    34  H          0.32420000       0.89410000       0.86010000
    35  C          0.80390000       0.81800000       0.41330000
    36  C          0.19610000       0.18200000       0.58670000
    37  H          0.86280000       0.89750000       0.48950000
    38  H          0.13720000       0.10250000       0.51050000
    39  H          0.73720000       0.84770000       0.38320000
    40  H          0.26280000       0.15230000       0.61680000
    41  C          0.51300000       0.27510000       0.93800000
    42  C          0.48700000       0.72490000       0.06200000
    43  H          0.49850000       0.19310000       0.86200000
    44  H          0.50150000       0.80690000       0.13800000
    45  H          0.55370000       0.36730000       0.92530000
    46  H          0.44630000       0.63270000       0.07470000
    47  C          0.88920000       0.24270000       0.37410000
    48  C          0.11080000       0.75730000       0.62590000
    49  H         -0.01750000       0.24990000       0.36190000
    50  H          0.01750000       0.75010000       0.63810000
    51  H          0.87900000       0.24150000       0.45460000
    52  H          0.12100000       0.75850000       0.54540000
    53  C          0.89060000       0.78730000       0.32370000
    54  C          0.10940000       0.21270000       0.67630000
    55  H          0.88490000       0.83060000       0.26480000
    56  H          0.11510000       0.16940000       0.73520000
    57  H         -0.01150000       0.82990000       0.36400000
    58  H          0.01150000       0.17010000       0.63600000
    59  C          0.78660000       0.11390000       0.28500000
    60  C          0.21340000       0.88610000       0.71500000
    61  H          0.73930000       0.04390000       0.32180000
    62  H          0.26070000       0.95610000       0.67820000
    63  H          0.83110000       0.06850000       0.22330000
    64  H          0.16890000       0.93150000       0.77670000
    65  C          0.37700000       0.25600000       0.98080000
    66  C          0.62300000       0.74400000       0.01920000
    67  H          0.33250000       0.30730000       0.95170000
    68  H          0.66750000       0.69270000       0.04830000
    69  H          0.31260000       0.15150000       0.95090000
    70  H          0.68740000       0.84850000       0.04910000
    71  C          0.83790000       0.62850000       0.26310000
    72  C          0.16210000       0.37150000       0.73690000
    73  H          0.91450000       0.59820000       0.26310000
    74  H          0.08550000       0.40180000       0.73690000
    75  H          0.79210000       0.59530000       0.17910000
    76  H          0.20790000       0.40470000       0.82090000
    77  C          0.72990000       0.68220000       0.43210000
    78  C          0.27010000       0.31780000       0.56790000
    79  H          0.77420000       0.68850000       0.50830000
    80  H          0.22580000       0.31150000       0.49170000
    81  H          0.63230000       0.66470000       0.43530000
    82  H          0.36770000       0.33530000       0.56470000
    83  N          0.11360000       0.72880000       0.11050000
    84  N          0.88640000       0.27120000       0.88950000
    85  O          0.90830000       0.73150000       0.86520000
    86  O          0.09170000       0.26850000       0.13480000
    87  O          0.38040000       0.93820000       0.38780000
    88  O          0.61960000       0.06180000       0.61220000
    89  N          0.26800000       0.68500000       0.29120000
    90  N          0.73200000       0.31500000       0.70880000
    91  O          0.91200000       0.54460000       0.90680000
    92  O          0.08800000       0.45540000       0.09320000
    93  N          0.29100000       0.50510000       0.34540000
    94  N          0.70900000       0.49490000       0.65460000
    95  N          0.42750000       0.74970000       0.46730000
    96  N          0.57250000       0.25030000       0.53270000
    97  C          0.95140000       0.68050000       0.92990000
    98  C          0.04860000       0.31950000       0.07010000
    99  C          0.06040000       0.78400000       0.04290000
   100  C          0.93960000       0.21600000       0.95710000
   101  C          0.21320000       0.84340000       0.20960000
   102  C          0.78680000       0.15660000       0.79040000
   103  C          0.33090000       0.64900000       0.37030000
   104  C          0.66910000       0.35100000       0.62970000
   105  C          0.22130000       0.97470000       0.20250000
   106  C          0.77870000       0.02530000       0.79750000
   107  H          0.27020000       0.06810000       0.26040000
   108  H          0.72980000       0.93190000       0.73960000
   109  C          0.29330000       0.82770000       0.30180000
   110  C          0.70670000       0.17230000       0.69820000
   111  C          0.12540000       0.93820000       0.09980000
   112  C          0.87460000       0.06180000       0.90020000
   113  H          0.11520000       0.01220000       0.06990000
   114  H          0.88480000      -0.01220000       0.93010000
   115  H          0.09420000       0.64150000       0.09000000
   116  H          0.90580000       0.35850000       0.91000000
   117  H          0.23300000       0.43540000       0.27770000
   118  H          0.76700000       0.56460000       0.72230000
   119  H          0.22110000       0.62420000       0.23330000
   120  H          0.77890000       0.37580000       0.76670000
   121  H          0.33740000       0.48080000       0.38490000
   122  H          0.66260000       0.51920000       0.61510000
   123  H          0.44690000       0.71700000       0.51310000
   124  H          0.55310000       0.28300000       0.48690000
   125  H          0.43750000       0.83690000       0.47890000
   126  H          0.56250000       0.16310000       0.52110000
