data_VAFZEK
_symmetry_space_group_name_H-M    'P1'
_symmetry_Int_Tables_number       1
loop_
_symmetry_equiv_pos_site_id
_symmetry_equiv_pos_as_xyz
1 x,y,z
_cell_length_a                   9.24519
_cell_length_b                   11.544411
_cell_length_c                   11.52271
_cell_angle_alpha                90.0
_cell_angle_beta                 91.3902
_cell_angle_gamma                90.0
loop_
_atom_site_label
_atom_site_type_symbol
_atom_site_fract_x
_atom_site_fract_y
_atom_site_fract_z
     1  Cl         0.78853700       0.66296500       0.25093500
     2  Cl         0.21146300       0.16296500       0.24906500
     3  Cl         0.21146300       0.33703500       0.74906500
     4  Cl         0.78853700       0.83703500       0.75093500
     5  Cl         0.88327800       0.63316700       0.01527600
     6  Cl         0.11672200       0.13316700       0.48472400
     7  Cl         0.11672200       0.36683300       0.98472400
     8  Cl         0.88327800       0.86683300       0.51527600
     9  Cl         0.58282800       0.67709700       0.06042700
    10  Cl         0.41717200       0.17709700       0.43957300
    11  Cl         0.41717200       0.32290300       0.93957300
    12  Cl         0.58282800       0.82290300       0.56042700
    13  O          0.59900180       0.45113150       0.19148150
    14  O          0.40099820       0.95113150       0.30851850
    15  O          0.40099820       0.54886850       0.80851850
    16  O          0.59900180       0.04886850       0.69148150
    17  H          0.62990000       0.44330000       0.25830000
    18  H          0.37010000       0.94330000       0.24170000
    19  H          0.37010000       0.55670000       0.74170000
    20  H          0.62990000       0.05670000       0.75830000
    21  O          0.83852000       0.41357150       0.14701150
    22  O          0.16148000       0.91357150       0.35298850
    23  O          0.16148000       0.58642850       0.85298850
    24  O          0.83852000       0.08642850       0.64701150
    25  H          0.85500000       0.41800000       0.21710000
    26  H          0.14500000       0.91800000       0.28290000
    27  H          0.14500000       0.58200000       0.78290000
    28  H          0.85500000       0.08200000       0.71710000
    29  C          0.74233000       0.60622000       0.11232000
    30  C          0.25767000       0.10622000       0.38768000
    31  C          0.25767000       0.39378000       0.88768000
    32  C          0.74233000       0.89378000       0.61232000
    33  C          0.71293000       0.47352000       0.11912000
    34  C          0.28707000       0.97352000       0.38088000
    35  C          0.28707000       0.52648000       0.88088000
    36  C          0.71293000       0.02648000       0.61912000
    37  H          0.68210000       0.44860000       0.04110000
    38  H          0.31790000       0.94860000       0.45890000
    39  H          0.31790000       0.55140000       0.95890000
    40  H          0.68210000       0.05140000       0.54110000
    41  O          0.09132000       0.60314180       0.62953160
    42  O          0.90868000       0.10314180       0.87046840
    43  O          0.90868000       0.39685820       0.37046840
    44  O          0.09132000       0.89685820       0.12953160
    45  N          0.25462000       0.57967160       0.34578170
    46  N          0.74538000       0.07967160       0.15421830
    47  N          0.74538000       0.42032840       0.65421830
    48  N          0.25462000       0.92032840       0.84578170
    49  O          0.32452000       0.58713000       0.59016170
    50  O          0.67548000       0.08713000       0.90983830
    51  O          0.67548000       0.41287000       0.40983830
    52  O          0.32452000       0.91287000       0.09016170
    53  C          0.39293000       0.64712000       0.35002000
    54  C          0.60707000       0.14712000       0.14998000
    55  C          0.60707000       0.35288000       0.64998000
    56  C          0.39293000       0.85288000       0.85002000
    57  H          0.45380000       0.62180000       0.28860000
    58  H          0.54620000       0.12180000       0.21140000
    59  H          0.54620000       0.37820000       0.71140000
    60  H          0.45380000       0.87820000       0.78860000
    61  H          0.44170000       0.63470000       0.42340000
    62  H          0.55830000       0.13470000       0.07660000
    63  H          0.55830000       0.36530000       0.57660000
    64  H          0.44170000       0.86530000       0.92340000
    65  H          0.37200000       0.72810000       0.34060000
    66  H          0.62800000       0.22810000       0.15940000
    67  H          0.62800000       0.27190000       0.65940000
    68  H          0.37200000       0.77190000       0.84060000
    69  C          0.14962000       0.62032000       0.43502000
    70  C          0.85038000       0.12032000       0.06498000
    71  C          0.85038000       0.37968000       0.56498000
    72  C          0.14962000       0.87968000       0.93502000
    73  H          0.05820000       0.58090000       0.42080000
    74  H          0.94180000       0.08090000       0.07920000
    75  H          0.94180000       0.41910000       0.57920000
    76  H          0.05820000       0.91910000       0.92080000
    77  H          0.13280000       0.70240000       0.42320000
    78  H          0.86720000       0.20240000       0.07680000
    79  H          0.86720000       0.29760000       0.57680000
    80  H          0.13280000       0.79760000       0.92320000
    81  C          0.19473000       0.60152000       0.56252000
    82  C          0.80527000       0.10152000       0.93748000
    83  C          0.80527000       0.39848000       0.43748000
    84  C          0.19473000       0.89848000       0.06252000
    85  C          0.18293000       0.59753000       0.22892000
    86  C          0.81707000       0.09753000       0.27108000
    87  C          0.81707000       0.40247000       0.77108000
    88  C          0.18293000       0.90247000       0.72892000
    89  H          0.24810000       0.57510000       0.16930000
    90  H          0.75190000       0.07510000       0.33070000
    91  H          0.75190000       0.42490000       0.83070000
    92  H          0.24810000       0.92490000       0.66930000
    93  H          0.15790000       0.67780000       0.21950000
    94  H          0.84210000       0.17780000       0.28050000
    95  H          0.84210000       0.32220000       0.78050000
    96  H          0.15790000       0.82220000       0.71950000
    97  H          0.09680000       0.55120000       0.22310000
    98  H          0.90320000       0.05120000       0.27690000
    99  H          0.90320000       0.44880000       0.77690000
   100  H          0.09680000       0.94880000       0.72310000
   101  C          0.28653000       0.45352000       0.36183000
   102  C          0.71347000       0.95352000       0.13817000
   103  C          0.71347000       0.54648000       0.63817000
   104  C          0.28653000       0.04648000       0.86183000
   105  H          0.19740000       0.41090000       0.36200000
   106  H          0.80260000       0.91090000       0.13800000
   107  H          0.80260000       0.58910000       0.63800000
   108  H          0.19740000       0.08910000       0.86200000
   109  H          0.33780000       0.44200000       0.43430000
   110  H          0.66220000       0.94200000       0.06570000
   111  H          0.66220000       0.55800000       0.56570000
   112  H          0.33780000       0.05800000       0.93430000
   113  H          0.34470000       0.42680000       0.29930000
   114  H          0.65530000       0.92680000       0.20070000
   115  H          0.65530000       0.57320000       0.70070000
   116  H          0.34470000       0.07320000       0.79930000
