data_VAHYEL
_symmetry_space_group_name_H-M    'P1'
_symmetry_Int_Tables_number       1
loop_
_symmetry_equiv_pos_site_id
_symmetry_equiv_pos_as_xyz
1 x,y,z
_cell_length_a                   10.21767
_cell_length_b                   6.74013
_cell_length_c                   10.92557
_cell_angle_alpha                90.0
_cell_angle_beta                 112.0207
_cell_angle_gamma                90.0
loop_
_atom_site_label
_atom_site_type_symbol
_atom_site_fract_x
_atom_site_fract_y
_atom_site_fract_z
     1  N          0.89006900       0.18762850       0.68119900
     2  N          0.10993100       0.68762850       0.31880100
     3  C          0.78515900       0.32124830       0.58358900
     4  C          0.21484100       0.82124830       0.41641100
     5  C          0.69886870       0.43718000       0.62677880
     6  C          0.30113130       0.93718000       0.37322120
     7  H          0.70590000       0.43000000       0.71400000
     8  H          0.29410000       0.93000000       0.28600000
     9  C          0.60169860       0.56418000       0.53843850
    10  C          0.39830140       0.06418000       0.46156150
    11  H          0.54410000       0.64340000       0.56690000
    12  H          0.45590000       0.14340000       0.43310000
    13  C          0.59019860       0.57337000       0.40762840
    14  C          0.40980140       0.07337000       0.59237160
    15  H          0.52580000       0.65930000       0.34870000
    16  H          0.47420000       0.15930000       0.65130000
    17  C          0.67463860       0.45477000       0.36618880
    18  C          0.32536140       0.95477000       0.63381120
    19  H          0.66610000       0.46030000       0.27850000
    20  H          0.33390000       0.96030000       0.72150000
    21  C          0.77295880       0.32598000       0.45282890
    22  C          0.22704120       0.82598000       0.54717110
    23  H          0.82910000       0.24520000       0.42360000
    24  H          0.17090000       0.74520000       0.57640000
    25  C         -0.00240170       0.10227000       0.63100840
    26  C          0.00240170       0.60227000       0.36899160
    27  H          0.94970000       0.03350000       0.54940000
    28  H          0.05030000       0.53350000       0.45060000
    29  H          0.05790000       0.01140000       0.69510000
    30  H          0.94210000       0.51140000       0.30490000
    31  H          0.05340000       0.20780000       0.61670000
    32  H          0.94660000       0.70780000       0.38330000
    33  C          0.81238840       0.01518000       0.71213840
    34  C          0.18761160       0.51518000       0.28786160
    35  H          0.76210000       0.94310000       0.63250000
    36  H          0.23790000       0.44310000       0.36750000
    37  H          0.74680000       0.06450000       0.74890000
    38  H          0.25320000       0.56450000       0.25110000
    39  H          0.87910000       0.92870000       0.77460000
    40  H          0.12090000       0.42870000       0.22540000
    41  C          0.96751880       0.29489810       0.81018890
    42  C          0.03248120       0.79489810       0.18981110
    43  H          0.04250000       0.20990000       0.86660000
    44  H          0.95750000       0.70990000       0.13340000
    45  H          0.90240000       0.31760000       0.85440000
    46  H          0.09760000       0.81760000       0.14560000
    47  C          0.03103120       0.49278000       0.79409880
    48  C          0.96896880      -0.00722000       0.20590120
    49  O          0.06004140       0.59838000       0.89967870
    50  O          0.93995860       0.09838000       0.10032130
    51  O          0.05182140       0.53898000       0.69559880
    52  O          0.94817860       0.03898000       0.30440120
    53  H          0.14520000       0.74560000       0.90680000
    54  H          0.85480000       0.24560000       0.09320000
    55  Cl         0.58680400       0.00248800       0.17804500
    56  Cl         0.41319600       0.50248800       0.82195500
    57  Cl         0.34460600       0.26579600       0.08596500
    58  Cl         0.65539400       0.76579600       0.91403500
    59  C          0.42274140       0.05080190       0.04925120
    60  C          0.57725860       0.55080190       0.95074880
    61  H          0.43900000       0.07390000       0.96750000
    62  H          0.56100000       0.57390000       0.03250000
    63  C          0.31920130       0.87666830       0.02729120
    64  C          0.68079870       0.37666830       0.97270880
    65  O          0.21340130       0.89134820       0.91901880
    66  O          0.78659870       0.39134820       0.08098120
    67  O          0.34180150       0.74698000       0.10999110
    68  O          0.65819850       0.24698000       0.89000890
