data_VAKTOR
_symmetry_space_group_name_H-M    'P1'
_symmetry_Int_Tables_number       1
loop_
_symmetry_equiv_pos_site_id
_symmetry_equiv_pos_as_xyz
1 x,y,z
_cell_length_a                   6.07291
_cell_length_b                   9.40132
_cell_length_c                   20.67234
_cell_angle_alpha                90.0
_cell_angle_beta                 95.28701
_cell_angle_gamma                90.0
loop_
_atom_site_label
_atom_site_type_symbol
_atom_site_fract_x
_atom_site_fract_y
_atom_site_fract_z
     1  N          0.90148000       0.08930140       0.34967600
     2  N          0.59852000       0.58930140       0.15032400
     3  N          0.09852000       0.91069860       0.65032400
     4  N          0.40148000       0.41069860       0.84967600
     5  C          0.78257000       0.97934180       0.36822800
     6  C          0.71743000       0.47934180       0.13177200
     7  C          0.21743000       0.02065820       0.63177200
     8  C          0.28257000       0.52065820       0.86822800
     9  C          0.86367000       0.87545180       0.41114700
    10  C          0.63633000       0.37545180       0.08885300
    11  C          0.13633000       0.12454820       0.58885300
    12  C          0.36367000       0.62454820       0.91114700
    13  C          0.08182000       0.88440150       0.43706700
    14  C          0.41818000       0.38440150       0.06293300
    15  C          0.91818000       0.11559850       0.56293300
    16  C          0.58182000       0.61559850       0.93706700
    17  C          0.20653000      -0.00090840       0.41894700
    18  C          0.29347000       0.49909160       0.08105300
    19  C          0.79347000       0.00090840       0.58105300
    20  C          0.70653000       0.50090840       0.91894700
    21  C          0.11163000       0.09718170       0.37494800
    22  C          0.38837000       0.59718170       0.12505200
    23  C          0.88837000       0.90281830       0.62505200
    24  C          0.61163000       0.40281830       0.87494800
    25  C          0.19112000       0.77682160       0.48268700
    26  C          0.30888000       0.27682160       0.01731300
    27  C          0.80888000       0.22317840       0.51731300
    28  C          0.69112000       0.72317840       0.98268700
    29  O          0.39183170       0.78854120       0.49953500
    30  O          0.10816830       0.28854120       0.00046500
    31  O          0.60816830       0.21145880       0.50046500
    32  O          0.89183170       0.71145880      -0.00046500
    33  N          0.07182000       0.67111150       0.50355700
    34  N          0.42818000       0.17111150      -0.00355700
    35  N          0.92818000       0.32888850       0.49644300
    36  N          0.57182000       0.82888850       0.00355700
    37  H          0.63070000       0.97711800       0.35028000
    38  H          0.86930000       0.47711800       0.14972000
    39  H          0.36930000       0.02288200       0.64972000
    40  H          0.13070000       0.52288200       0.85028000
    41  H          0.76870000       0.79820000       0.42218000
    42  H          0.73130000       0.29820000       0.07782000
    43  H          0.23130000       0.20180000       0.57782000
    44  H          0.26870000       0.70180000       0.92218000
    45  H          0.35930000       0.00841700       0.43798000
    46  H          0.14070000       0.50841700       0.06202000
    47  H          0.64070000      -0.00841700       0.56202000
    48  H          0.85930000       0.49158300       0.93798000
    49  H          0.19830000       0.17920000       0.36108000
    50  H          0.30170000       0.67920000       0.13892000
    51  H          0.80170000       0.82080000       0.63892000
    52  H          0.69830000       0.32080000       0.86108000
    53  H          0.14930000       0.60020000       0.53201000
    54  H          0.35070000       0.10020000       0.96799000
    55  H          0.85070000       0.39980000       0.46799000
    56  H          0.64930000       0.89980000       0.03201000
    57  H          0.92260000       0.66720000       0.49271000
    58  H          0.57740000       0.16720000       0.00729000
    59  H          0.07740000       0.33280000       0.50729000
    60  H          0.42260000       0.83280000       0.99271000
    61  C          0.70472000       0.43058150       0.64595700
    62  C          0.79528000       0.93058150       0.85404300
    63  C          0.29528000       0.56941850       0.35404300
    64  C          0.20472000       0.06941850       0.14595700
    65  C          0.91922000       0.47915160       0.66212700
    66  C          0.58078000       0.97915160       0.83787300
    67  C          0.08078000       0.52084840       0.33787300
    68  C          0.41922000       0.02084840       0.16212700
    69  C          0.05852000       0.41088160       0.70893700
    70  C          0.44148000       0.91088160       0.79106300
    71  C          0.94148000       0.58911840       0.29106300
    72  C          0.55852000       0.08911840       0.20893700
    73  C         -0.01528000       0.29074160       0.73992700
    74  C          0.51528000       0.79074160       0.76007300
    75  C          0.01528000       0.70925840       0.26007300
    76  C          0.48472000       0.20925840       0.23992700
    77  C          0.77263000       0.23928170       0.72322700
    78  C          0.72737000       0.73928170       0.77677300
    79  C          0.22737000       0.76071830       0.27677300
    80  C          0.27263000       0.26071830       0.22322700
    81  C          0.63333000       0.30943160       0.67714700
    82  C          0.86667000       0.80943160       0.82285300
    83  C          0.36667000       0.69056840       0.32285300
    84  C          0.13333000       0.19056840       0.17714700
    85  C          0.55112000       0.50483150       0.59742700
    86  C          0.94888000       0.00483150       0.90257300
    87  C          0.44888000       0.49516850       0.40257300
    88  C          0.05112000      -0.00483150       0.09742700
    89  O          0.36131160       0.46688110       0.58157500
    90  O          0.13868840       0.96688110       0.91842500
    91  O          0.63868840       0.53311890       0.41842500
    92  O          0.86131160       0.03311890       0.08157500
    93  O          0.64006180       0.61907110       0.57227500
    94  O          0.85993820       0.11907110       0.92772500
    95  O          0.35993820       0.38092890       0.42772500
    96  O          0.14006180       0.88092890       0.07227500
    97  O          0.11422000       0.21998120       0.78659500
    98  O          0.38578000       0.71998120       0.71340500
    99  O          0.88578000       0.78001880       0.21340500
   100  O          0.61422000       0.28001880       0.28659500
   101  H         -0.02470000       0.56331900       0.64098000
   102  H          0.52470000       0.06331900       0.85902000
   103  H          0.02470000       0.43668100       0.35902000
   104  H          0.47530000       0.93668100       0.14098000
   105  H          0.21030000       0.44641800       0.71988000
   106  H          0.28970000       0.94641800       0.78012000
   107  H          0.78970000       0.55358200       0.28012000
   108  H          0.71030000       0.05358200       0.21988000
   109  H          0.72130000       0.15320000       0.74518000
   110  H          0.77870000       0.65320000       0.75482000
   111  H          0.27870000       0.84680000       0.25482000
   112  H          0.22130000       0.34680000       0.24518000
   113  H          0.47730000       0.27661700       0.66668000
   114  H          0.02270000       0.77661700       0.83332000
   115  H          0.52270000       0.72338300       0.33332000
   116  H         -0.02270000       0.22338300       0.16668000
   117  H          0.52540000       0.67920000       0.54481000
   118  H          0.97460000       0.17920000       0.95519000
   119  H          0.47460000       0.32080000       0.45519000
   120  H          0.02540000       0.82080000       0.04481000
   121  H          0.23340000       0.28320000       0.80371000
   122  H          0.26660000       0.78320000       0.69629000
   123  H          0.76660000       0.71680000       0.19629000
   124  H          0.73340000       0.21680000       0.30371000
