data_VAKVIN
_symmetry_space_group_name_H-M    'P1'
_symmetry_Int_Tables_number       1
loop_
_symmetry_equiv_pos_site_id
_symmetry_equiv_pos_as_xyz
1 x,y,z
_cell_length_a                   14.28114
_cell_length_b                   5.41362
_cell_length_c                   11.91103
_cell_angle_alpha                90.0
_cell_angle_beta                 111.93401
_cell_angle_gamma                90.0
loop_
_atom_site_label
_atom_site_type_symbol
_atom_site_fract_x
_atom_site_fract_y
_atom_site_fract_z
     1  N          0.73809900       0.87258000       0.67575110
     2  N          0.26190100       0.37258000       0.82424890
     3  N          0.26190100       0.12742000       0.32424890
     4  N          0.73809900       0.62742000       0.17575110
     5  C          0.83562110       0.83177000       0.69568150
     6  C          0.16437890       0.33177000       0.80431850
     7  C          0.16437890       0.16823000       0.30431850
     8  C          0.83562110       0.66823000       0.19568150
     9  C          0.89146110       0.64737000       0.77114140
    10  C          0.10853890       0.14737000       0.72885860
    11  C          0.10853890       0.35263000       0.22885860
    12  C          0.89146110       0.85263000       0.27114140
    13  C          0.84646100       0.49487000       0.83009130
    14  C          0.15353900      -0.00513000       0.66990870
    15  C          0.15353900       0.50513000       0.16990870
    16  C          0.84646100       0.00513000       0.33009130
    17  C          0.74541110       0.53557000       0.80938140
    18  C          0.25458890       0.03557000       0.69061860
    19  C          0.25458890       0.46443000       0.19061860
    20  C          0.74541110       0.96443000       0.30938140
    21  C          0.69455120       0.72427000       0.73147140
    22  C          0.30544880       0.22427000       0.76852860
    23  C          0.30544880       0.27573000       0.26852860
    24  C          0.69455120       0.77573000       0.23147140
    25  C          0.90926110       0.29127000       0.90862130
    26  C          0.09073890       0.79127000       0.59137870
    27  C          0.09073890       0.70873000       0.09137870
    28  C          0.90926110       0.20873000       0.40862130
    29  O         -0.00547300       0.25198000       0.90815100
    30  O          0.00547300       0.75198000       0.59184900
    31  O          0.00547300       0.74802000       0.09184900
    32  O         -0.00547300       0.24802000       0.40815100
    33  N          0.87007100       0.15787000       0.97456130
    34  N          0.12992900       0.65787000       0.52543870
    35  N          0.12992900       0.84213000       0.02543870
    36  N          0.87007100       0.34213000       0.47456130
    37  H          0.70811100       0.43670000       0.84901400
    38  H          0.29188900       0.93670000       0.65098600
    39  H          0.29188900       0.56330000       0.15098600
    40  H          0.70811100       0.06330000       0.34901400
    41  H          0.96231100       0.62270000       0.78151400
    42  H          0.03768900       0.12270000       0.71848600
    43  H          0.03768900       0.37730000       0.21848600
    44  H          0.96231100       0.87730000       0.28151400
    45  H          0.62081100       0.75170000       0.71491300
    46  H          0.37918900       0.25170000       0.78508700
    47  H          0.37918900       0.24830000       0.28508700
    48  H          0.62081100       0.74830000       0.21491300
    49  H          0.80691400       0.18270000       0.97511600
    50  H          0.19308600       0.68270000       0.52488400
    51  H          0.19308600       0.81730000       0.02488400
    52  H          0.80691400       0.31730000       0.47511600
    53  H          0.86711100       0.93970000       0.65261500
    54  H          0.13288900       0.43970000       0.84738500
    55  H          0.13288900       0.06030000       0.34738500
    56  H          0.86711100       0.56030000       0.15261500
    57  H          0.91241400       0.02260000       0.01951700
    58  H          0.08758600       0.52260000       0.48048300
    59  H          0.08758600      -0.02260000       0.98048300
    60  H          0.91241400       0.47740000       0.51951700
    61  O          0.66921800       0.23632000       0.51093110
    62  O          0.33078200       0.73632000      -0.01093110
    63  O          0.33078200       0.76368000       0.48906890
    64  O          0.66921800       0.26368000       0.01093110
    65  C          0.58446100       0.36213000       0.50641140
    66  C          0.41553900       0.86213000      -0.00641140
    67  C          0.41553900       0.63787000       0.49358860
    68  C          0.58446100       0.13787000       0.00641140
    69  C          0.52496120       0.28733000       0.56921150
    70  C          0.47503880       0.78733000       0.93078850
    71  C          0.47503880       0.71267000       0.43078850
    72  C          0.52496120       0.21267000       0.06921150
    73  C          0.55880110       0.57543000       0.43719140
    74  C          0.44119890       0.07543000       0.06280860
    75  C          0.44119890       0.42457000       0.56280860
    76  C          0.55880110       0.92457000       0.93719140
    77  H          0.54241100       0.14030000       0.61731500
    78  H          0.45758900       0.64030000       0.88268500
    79  H          0.45758900       0.85970000       0.38268500
    80  H          0.54241100       0.35970000       0.11731500
    81  H          0.60351100       0.62630000       0.39721600
    82  H          0.39648900       0.12630000       0.10278400
    83  H          0.39648900       0.37370000       0.60278400
    84  H          0.60351100       0.87370000       0.89721600
    85  H          0.68331400       0.11240000       0.57120000
    86  H          0.31668600       0.61240000       0.92880000
    87  H          0.31668600       0.88760000       0.42880000
    88  H          0.68331400       0.38760000       0.07120000
