data_VALSIO
_symmetry_space_group_name_H-M    'P1'
_symmetry_Int_Tables_number       1
loop_
_symmetry_equiv_pos_site_id
_symmetry_equiv_pos_as_xyz
1 x,y,z
_cell_length_a                   16.59496
_cell_length_b                   7.67723
_cell_length_c                   14.89256
_cell_angle_alpha                90.0
_cell_angle_beta                 107.65401
_cell_angle_gamma                90.0
loop_
_atom_site_label
_atom_site_type_symbol
_atom_site_fract_x
_atom_site_fract_y
_atom_site_fract_z
     1  I          0.73714200       0.60989200       0.73984200
     2  I          0.26285800       0.10989200       0.76015800
     3  I          0.26285800       0.39010800       0.26015800
     4  I          0.73714200       0.89010800       0.23984200
     5  F          0.64042900       0.48172000       0.88603110
     6  F          0.35957100       0.98172000       0.61396890
     7  F          0.35957100       0.51828000       0.11396890
     8  F          0.64042900       0.01828000       0.38603110
     9  F          0.91321100       0.67623000       0.89739120
    10  F          0.08678900       0.17623000       0.60260880
    11  F          0.08678900       0.32377000       0.10260880
    12  F          0.91321100       0.82377000       0.39739120
    13  F          0.85896130       0.48273000       0.17224120
    14  F          0.14103870      -0.01727000       0.32775880
    15  F          0.14103870       0.51727000       0.82775880
    16  F          0.85896130       0.01727000       0.67224120
    17  F          0.96728130       0.61593000       0.08396150
    18  F          0.03271870       0.11593000       0.41603850
    19  F          0.03271870       0.38407000       0.91603850
    20  F          0.96728130       0.88407000       0.58396150
    21  F          0.69608130       0.41583000       0.07159140
    22  F          0.30391870       0.91583000       0.42840860
    23  F          0.30391870       0.58417000       0.92840860
    24  F          0.69608130       0.08417000       0.57159140
    25  C          0.77572160       0.57813000       0.88639170
    26  C          0.22427840       0.07813000       0.61360830
    27  C          0.22427840       0.42187000       0.11360830
    28  C          0.77572160       0.92187000       0.38639170
    29  C          0.72186150       0.51463000       0.93327170
    30  C          0.27813850       0.01463000       0.56672830
    31  C          0.27813850       0.48537000       0.06672830
    32  C          0.72186150      -0.01463000       0.43327170
    33  C          0.74946170       0.48114000       0.02883190
    34  C          0.25053830       0.98114000       0.47116810
    35  C          0.25053830       0.51886000       0.97116810
    36  C          0.74946170       0.01886000       0.52883190
    37  C          0.88636180       0.58124000       0.03492000
    38  C          0.11363820       0.08124000       0.46508000
    39  C          0.11363820       0.41876000       0.96508000
    40  C          0.88636180       0.91876000       0.53492000
    41  C          0.85814170       0.61253000       0.93902000
    42  C          0.14185830       0.11253000       0.56098000
    43  C          0.14185830       0.38747000       0.06098000
    44  C          0.85814170       0.88747000       0.43902000
    45  C          0.83202180       0.51474000       0.07972180
    46  C          0.16797820       0.01474000       0.42027820
    47  C          0.16797820       0.48526000       0.92027820
    48  C          0.83202180      -0.01474000       0.57972180
    49  N          0.63596120       0.65603000       0.52443130
    50  N          0.36403880       0.15603000       0.97556870
    51  N          0.36403880       0.34397000       0.47556870
    52  N          0.63596120       0.84397000       0.02443130
    53  N          0.79769130       0.52763000       0.55504140
    54  N          0.20230870       0.02763000       0.94495860
    55  N          0.20230870       0.47237000       0.44495860
    56  N          0.79769130       0.97237000       0.05504140
    57  C          0.65465150       0.56723000       0.45424160
    58  C          0.34534850       0.06723000       0.04575840
    59  C          0.34534850       0.43277000       0.54575840
    60  C          0.65465150       0.93277000       0.95424160
    61  C          0.74023150       0.50333000       0.46954160
    62  C          0.25976850       0.00333000       0.03045840
    63  C          0.25976850       0.49667000       0.53045840
    64  C          0.74023150      -0.00333000       0.96954160
    65  C          0.59342160       0.53553000       0.36626170
    66  C          0.40657840       0.03553000       0.13373830
    67  C          0.40657840       0.46447000       0.63373830
    68  C          0.59342160       0.96447000       0.86626170
    69  C          0.55757150       0.71423000       0.50925170
    70  C          0.44242850       0.21423000      -0.00925170
    71  C          0.44242850       0.28577000       0.49074830
    72  C          0.55757150       0.78577000       0.00925170
    73  C          0.76005190       0.41863000       0.39442000
    74  C          0.23994810       0.91863000       0.10558000
    75  C          0.23994810       0.58137000       0.60558000
    76  C          0.76005190       0.08137000       0.89442000
    77  C          0.51089190       0.59663000       0.35312000
    78  C          0.48910810       0.09663000       0.14688000
    79  C          0.48910810       0.40337000       0.64688000
    80  C          0.51089190       0.90337000       0.85312000
    81  H          0.46799100       0.57671800       0.29517100
    82  H          0.53200900       0.07671800       0.20482900
    83  H          0.53200900       0.42328200       0.70482900
    84  H          0.46799100       0.92328200       0.79517100
    85  C          0.49277160       0.68453000       0.42412000
    86  C          0.50722840       0.18453000       0.07588000
    87  C          0.50722840       0.31547000       0.57588000
    88  C          0.49277160       0.81547000       0.92412000
    89  H          0.43703600       0.72539600       0.41624700
    90  H          0.56296400       0.22539600       0.08375300
    91  H          0.56296400       0.27460400       0.58375300
    92  H          0.43703600       0.77460400       0.91624700
    93  C          0.53911160       0.81624000       0.58642000
    94  C          0.46088840       0.31624000       0.91358000
    95  C          0.46088840       0.18376000       0.41358000
    96  C          0.53911160       0.68376000       0.08642000
    97  H          0.55334400       0.74598300       0.64408100
    98  H          0.44665600       0.24598300       0.85591900
    99  H          0.44665600       0.25401700       0.35591900
   100  H          0.55334400       0.75401700       0.14408100
   101  H          0.47891000       0.84637600       0.56771900
   102  H          0.52109000       0.34637600       0.93228100
   103  H          0.52109000       0.15362400       0.43228100
   104  H          0.47891000       0.65362400       0.06771900
   105  H          0.57299700       0.92309900       0.59804200
   106  H          0.42700300       0.42309900       0.90195800
   107  H          0.42700300       0.07690100       0.40195800
   108  H          0.57299700       0.57690100       0.09804200
   109  C          0.84342000       0.36154000       0.41052000
   110  C          0.15658000       0.86154000       0.08948000
   111  C          0.15658000       0.63846000       0.58948000
   112  C          0.84342000       0.13846000       0.91052000
   113  H          0.85981400       0.30678200       0.36152300
   114  H          0.14018600       0.80678200       0.13847700
   115  H          0.14018600       0.69321800       0.63847700
   116  H          0.85981400       0.19321800       0.86152300
   117  C          0.61632000       0.44474000       0.29370180
   118  C          0.38368000       0.94474000       0.20629820
   119  C          0.38368000       0.55526000       0.70629820
   120  C          0.61632000       0.05526000       0.79370180
   121  H          0.57416000       0.42212500       0.23547800
   122  H          0.42584000       0.92212500       0.26452200
   123  H          0.42584000       0.57787500       0.76452200
   124  H          0.57416000       0.07787500       0.73547800
   125  C          0.69572000       0.39073000       0.30602000
   126  C          0.30428000       0.89073000       0.19398000
   127  C          0.30428000       0.60927000       0.69398000
   128  C          0.69572000       0.10927000       0.80602000
   129  H          0.70957400       0.33365200       0.25597800
   130  H          0.29042600       0.83365200       0.24402200
   131  H          0.29042600       0.66634800       0.74402200
   132  H          0.70957400       0.16634800       0.75597800
   133  C          0.87573170       0.46884000       0.56902000
   134  C          0.12426830       0.96884000       0.93098000
   135  C          0.12426830       0.53116000       0.43098000
   136  C          0.87573170       0.03116000       0.06902000
   137  C          0.90102000       0.38534000       0.49743000
   138  C          0.09898000       0.88534000       0.00257000
   139  C          0.09898000       0.61466000       0.50257000
   140  C          0.90102000       0.11466000      -0.00257000
   141  H          0.95760100       0.34597900       0.50951300
   142  H          0.04239900       0.84597900      -0.00951300
   143  H          0.04239900       0.65402100       0.49048700
   144  H          0.95760100       0.15402100       0.00951300
   145  C          0.93805180       0.48965000       0.66572000
   146  C          0.06194820      -0.01035000       0.83428000
   147  C          0.06194820       0.51035000       0.33428000
   148  C          0.93805180       0.01035000       0.16572000
   149  H          0.92470800       0.59541000       0.69520200
   150  H          0.07529200       0.09541000       0.80479800
   151  H          0.07529200       0.40459000       0.30479800
   152  H          0.92470800       0.90459000       0.19520200
   153  H         -0.00463100       0.49859300       0.66054100
   154  H          0.00463100      -0.00140700       0.83945900
   155  H          0.00463100       0.50140700       0.33945900
   156  H         -0.00463100       0.00140700       0.16054100
   157  H          0.93463200       0.38827900       0.70446800
   158  H          0.06536800       0.88827900       0.79553200
   159  H          0.06536800       0.61172100       0.29553200
   160  H          0.93463200       0.11172100       0.20446800
