data_VAMTAF
_symmetry_space_group_name_H-M    'P1'
_symmetry_Int_Tables_number       1
loop_
_symmetry_equiv_pos_site_id
_symmetry_equiv_pos_as_xyz
1 x,y,z
_cell_length_a                   20.0185
_cell_length_b                   9.2112
_cell_length_c                   7.557919
_cell_angle_alpha                90.0
_cell_angle_beta                 107.4594
_cell_angle_gamma                90.0
loop_
_atom_site_label
_atom_site_type_symbol
_atom_site_fract_x
_atom_site_fract_y
_atom_site_fract_z
     1  S          0.14264200       0.04193500       0.14928600
     2  S          0.85735800       0.04193500       0.85071400
     3  S          0.64264200       0.54193500       0.14928600
     4  S          0.35735800       0.54193500       0.85071400
     5  O          0.14177800       0.13000150       0.30922000
     6  O          0.85822200       0.13000150       0.69078000
     7  O          0.64177800       0.63000150       0.30922000
     8  O          0.35822200       0.63000150       0.69078000
     9  O          0.14324700       0.13132140      -0.00959190
    10  O          0.85675300       0.13132140       0.00959190
    11  O          0.64324700       0.63132140      -0.00959190
    12  O          0.35675300       0.63132140       0.00959190
    13  O          0.20110700       0.94076830       0.19532000
    14  O          0.79889300       0.94076830       0.80468000
    15  O          0.70110700       0.44076830       0.19532000
    16  O          0.29889300       0.44076830       0.80468000
    17  C          0.06188900       0.94208000       0.07833000
    18  C          0.93811100       0.94208000       0.92167000
    19  C          0.56188900       0.44208000       0.07833000
    20  C          0.43811100       0.44208000       0.92167000
    21  C          0.06115900       0.78978000       0.09603000
    22  C          0.93884100       0.78978000       0.90397000
    23  C          0.56115900       0.28978000       0.09603000
    24  C          0.43884100       0.28978000       0.90397000
    25  C         -0.00000000       0.71467000      -0.00000000
    26  C          0.50000000       0.21467000      -0.00000000
    27  C         -0.00000000       0.02223000      -0.00000000
    28  C          0.50000000       0.52223000      -0.00000000
    29  C          0.12192110       0.70328000       0.21823000
    30  C          0.87807890       0.70328000       0.78177000
    31  C          0.62192110       0.20328000       0.21823000
    32  C          0.37807890       0.20328000       0.78177000
    33  H          0.15210000       0.67100000       0.14500000
    34  H          0.84790000       0.67100000       0.85500000
    35  H          0.65210000       0.17100000       0.14500000
    36  H          0.34790000       0.17100000       0.85500000
    37  H          0.10400000       0.61850000       0.26790000
    38  H          0.89600000       0.61850000       0.73210000
    39  H          0.60400000       0.11850000       0.26790000
    40  H          0.39600000       0.11850000       0.73210000
    41  H          0.14900000       0.76440000       0.32090000
    42  H          0.85100000       0.76440000       0.67910000
    43  H          0.64900000       0.26440000       0.32090000
    44  H          0.35100000       0.26440000       0.67910000
    45  C         -0.00000000       0.54906000      -0.00000000
    46  C          0.50000000       0.04906000       0.00000000
    47  C         -0.00000000       0.18643000      -0.00000000
    48  C          0.50000000       0.68643000      -0.00000000
    49  H          0.95900000       0.22190000       0.90250000
    50  H          0.04100000       0.22190000       0.09750000
    51  H          0.45900000       0.72190000       0.90250000
    52  H          0.54100000       0.72190000       0.09750000
    53  C          0.00000000       0.32264000       0.50000000
    54  C          0.50000000       0.82264000       0.50000000
    55  C          0.94036880       0.40053000       0.40713000
    56  C          0.05963120       0.40053000       0.59287000
    57  C          0.44036880       0.90053000       0.40713000
    58  C          0.55963120       0.90053000       0.59287000
    59  H          0.89900000       0.34900000       0.34320000
    60  H          0.10100000       0.34900000       0.65680000
    61  H          0.39900000       0.84900000       0.34320000
    62  H          0.60100000       0.84900000       0.65680000
    63  C          0.93929900       0.54914000       0.40483000
    64  C          0.06070100       0.54914000       0.59517000
    65  C          0.43929900       0.04914000       0.40483000
    66  C          0.56070100       0.04914000       0.59517000
    67  C          0.00000000       0.62574000       0.50000000
    68  C          0.50000000       0.12574000       0.50000000
    69  H          0.00000000       0.72890000       0.50000000
    70  H          0.50000000       0.22890000       0.50000000
    71  C          0.00000000       0.15894000       0.50000000
    72  C          0.50000000       0.65894000       0.50000000
    73  C          0.87450870       0.63333000       0.29884000
    74  C          0.12549130       0.63333000       0.70116000
    75  C          0.37450870       0.13333000       0.29884000
    76  C          0.62549130       0.13333000       0.70116000
    77  H          0.85550000       0.59210000       0.17420000
    78  H          0.14450000       0.59210000       0.82580000
    79  H          0.35550000       0.09210000       0.17420000
    80  H          0.64450000       0.09210000       0.82580000
    81  H          0.88690000       0.73530000       0.28900000
    82  H          0.11310000       0.73530000       0.71100000
    83  H          0.38690000       0.23530000       0.28900000
    84  H          0.61310000       0.23530000       0.71100000
    85  H          0.83920000       0.62700000       0.36460000
    86  H          0.16080000       0.62700000       0.63540000
    87  H          0.33920000       0.12700000       0.36460000
    88  H          0.66080000       0.12700000       0.63540000
    89  C          0.24376100       0.93718000       0.73077000
    90  C          0.75623900       0.93718000       0.26923000
    91  C          0.74376100       0.43718000       0.73077000
    92  C          0.25623900       0.43718000       0.26923000
    93  N          0.26846900       0.88898000       0.90358000
    94  N          0.73153100       0.88898000       0.09642000
    95  N          0.76846900       0.38898000       0.90358000
    96  N          0.23153100       0.38898000       0.09642000
    97  H          0.30290000       0.82560000       0.93260000
    98  H          0.69710000       0.82560000       0.06740000
    99  H          0.80290000       0.32560000       0.93260000
   100  H          0.19710000       0.32560000       0.06740000
   101  H          0.25040000       0.92050000      -0.01070000
   102  H          0.74960000       0.92050000       0.01070000
   103  H          0.75040000       0.42050000      -0.01070000
   104  H          0.24960000       0.42050000       0.01070000
   105  N          0.19220800       0.03332000       0.68808000
   106  N          0.80779200       0.03332000       0.31192000
   107  N          0.69220800       0.53332000       0.68808000
   108  N          0.30779200       0.53332000       0.31192000
   109  H          0.17590000       0.06600000       0.57380000
   110  H          0.82410000       0.06600000       0.42620000
   111  H          0.67590000       0.56600000       0.57380000
   112  H          0.32410000       0.56600000       0.42620000
   113  H          0.17430000       0.06460000       0.77410000
   114  H          0.82570000       0.06460000       0.22590000
   115  H          0.67430000       0.56460000       0.77410000
   116  H          0.32570000       0.56460000       0.22590000
   117  N          0.27075900       0.89018000       0.60168000
   118  N          0.72924100       0.89018000       0.39832000
   119  N          0.77075900       0.39018000       0.60168000
   120  N          0.22924100       0.39018000       0.39832000
   121  H          0.25450000       0.92280000       0.48730000
   122  H          0.74550000       0.92280000       0.51270000
   123  H          0.75450000       0.42280000       0.48730000
   124  H          0.24550000       0.42280000       0.51270000
   125  H          0.30500000       0.82630000       0.63020000
   126  H          0.69500000       0.82630000       0.36980000
   127  H          0.80500000       0.32630000       0.63020000
   128  H          0.19500000       0.32630000       0.36980000
