data_VAPMIK
_symmetry_space_group_name_H-M    'P1'
_symmetry_Int_Tables_number       1
loop_
_symmetry_equiv_pos_site_id
_symmetry_equiv_pos_as_xyz
1 x,y,z
_cell_length_a                   7.49071
_cell_length_b                   12.862615
_cell_length_c                   28.0294
_cell_angle_alpha                90.0
_cell_angle_beta                 90.0
_cell_angle_gamma                90.0
loop_
_atom_site_label
_atom_site_type_symbol
_atom_site_fract_x
_atom_site_fract_y
_atom_site_fract_z
     1  C          0.13857000       0.98123000       0.06342000
     2  C          0.36143000       0.01877000       0.56342000
     3  C          0.86143000       0.48123000       0.43658000
     4  C          0.63857000       0.51877000       0.93658000
     5  C          0.13026000       0.87763000       0.03992000
     6  C          0.36974000       0.12237000       0.53992000
     7  C          0.86974000       0.37763000       0.46008000
     8  C          0.63026000       0.62237000       0.96008000
     9  O          0.25463000       0.81041000       0.06251000
    10  O          0.24537000       0.18959000       0.56251000
    11  O          0.74537000       0.31041000       0.43749000
    12  O          0.75463000       0.68959000       0.93749000
    13  C          0.25534000       0.70802000       0.04891000
    14  C          0.24466000       0.29198000       0.54891000
    15  C          0.74466000       0.20802000       0.45109000
    16  C          0.75534000       0.79198000       0.95109000
    17  C          0.15555000       0.66762000       0.01171000
    18  C          0.34445000       0.33238000       0.51171000
    19  C          0.84445000       0.16762000       0.48829000
    20  C          0.65555000       0.83238000       0.98829000
    21  C          0.16694000       0.56302000       0.00131000
    22  C          0.33306000       0.43698000       0.50131000
    23  C          0.83306000       0.06302000       0.49869000
    24  C          0.66694000       0.93698000      -0.00131000
    25  C          0.27454000       0.49662000       0.02681000
    26  C          0.22546000       0.50338000       0.52681000
    27  C          0.72546000      -0.00338000       0.47319000
    28  C          0.77454000       0.00338000       0.97319000
    29  C          0.37234000       0.53852000       0.06391000
    30  C          0.12766000       0.46148000       0.56391000
    31  C          0.62766000       0.03852000       0.43609000
    32  C          0.87234000       0.96148000       0.93609000
    33  C          0.36434000       0.64232000       0.07491000
    34  C          0.13566000       0.35768000       0.57491000
    35  C          0.63566000       0.14232000       0.42509000
    36  C          0.86434000       0.85768000       0.92509000
    37  C          0.28395000       0.38072000       0.01571000
    38  C          0.21605000       0.61928000       0.51571000
    39  C          0.71605000       0.88072000       0.48429000
    40  C          0.78395000       0.11928000       0.98429000
    41  C          0.22484000       0.31592000       0.05771000
    42  C          0.27516000       0.68408000       0.55771000
    43  C          0.77516000       0.81592000       0.44229000
    44  C          0.72484000       0.18408000       0.94229000
    45  C          0.04674000       0.30742000       0.07081000
    46  C          0.45326000       0.69258000       0.57081000
    47  C          0.95326000       0.80742000       0.42919000
    48  C          0.54674000       0.19258000       0.92919000
    49  Cl         0.88029000       0.36521000       0.03621000
    50  Cl         0.61971000       0.63479000       0.53621000
    51  Cl         0.11971000       0.86521000       0.46379000
    52  Cl         0.38029000       0.13479000       0.96379000
    53  C         -0.00564000       0.25352000       0.11121000
    54  C          0.50564000       0.74648000       0.61121000
    55  C          0.00564000       0.75352000       0.38879000
    56  C          0.49436000       0.24648000       0.88879000
    57  C          0.12194000       0.20552000       0.13911000
    58  C          0.37806000       0.79448000       0.63911000
    59  C          0.87806000       0.70552000       0.36089000
    60  C          0.62194000       0.29448000       0.86089000
    61  C          0.30144000       0.20952000       0.12651000
    62  C          0.19856000       0.79048000       0.62651000
    63  C          0.69856000       0.70952000       0.37349000
    64  C          0.80144000       0.29048000       0.87349000
    65  C          0.35024000       0.26522000       0.08641000
    66  C          0.14976000       0.73478000       0.58641000
    67  C          0.64976000       0.76522000       0.41359000
    68  C          0.85024000       0.23478000       0.91359000
    69  C          0.43353000       0.14932000       0.15601000
    70  C          0.06647000       0.85068000       0.65601000
    71  C          0.56647000       0.64932000       0.34399000
    72  C          0.93353000       0.35068000       0.84399000
    73  O          0.38622000       0.04201000       0.15441000
    74  O          0.11378000       0.95799000       0.65441000
    75  O          0.61378000       0.54201000       0.34559000
    76  O          0.88622000       0.45799000       0.84559000
    77  C          0.54784000      -0.00952000       0.16901000
    78  C          0.95216000       0.00952000       0.66901000
    79  C          0.45216000       0.49048000       0.33099000
    80  C          0.04784000       0.50952000       0.83099000
    81  C          0.53974000       0.87918000       0.15251000
    82  C          0.96026000       0.12082000       0.65251000
    83  C          0.46026000       0.37918000       0.34749000
    84  C          0.03974000       0.62082000       0.84749000
    85  O          0.40124000       0.82178000       0.17391000
    86  O          0.09876000       0.17822000       0.67391000
    87  O          0.59876000       0.32178000       0.32609000
    88  O          0.90124000       0.67822000       0.82609000
    89  C          0.55924000       0.00182000       0.22331000
    90  C          0.94076000      -0.00182000       0.72331000
    91  C          0.44076000       0.50182000       0.27669000
    92  C          0.05924000       0.49818000       0.77669000
    93  O          0.70853000       0.94658000       0.24191000
    94  O          0.79147000       0.05342000       0.74191000
    95  O          0.29147000       0.44658000       0.25809000
    96  O          0.20853000       0.55342000       0.75809000
    97  C          0.57504000       0.11682000       0.23611000
    98  C          0.92496000       0.88318000       0.73611000
    99  C          0.42496000       0.61682000       0.26389000
   100  C          0.07504000       0.38318000       0.76389000
   101  O          0.55363000       0.12672000       0.28611000
   102  O          0.94637000       0.87328000       0.78611000
   103  O          0.44637000       0.62672000       0.21389000
   104  O          0.05363000       0.37328000       0.71389000
   105  C          0.43934000       0.18162000       0.20861000
   106  C          0.06066000       0.81838000       0.70861000
   107  C          0.56066000       0.68162000       0.29139000
   108  C          0.93934000       0.31838000       0.79139000
   109  O          0.47503000       0.29042000       0.21361000
   110  O          0.02497000       0.70958000       0.71361000
   111  O          0.52497000       0.79042000       0.28639000
   112  O          0.97503000       0.20958000       0.78639000
   113  O          0.60933000       0.15451000       0.13631000
   114  O          0.89067000       0.84549000       0.63631000
   115  O          0.39067000       0.65451000       0.36369000
   116  O          0.10933000       0.34549000       0.86369000
   117  C          0.69034000       0.05292000       0.14251000
   118  C          0.80966000       0.94708000       0.64251000
   119  C          0.30966000       0.55292000       0.35749000
   120  C          0.19034000       0.44708000       0.85749000
   121  H          0.10800000       0.97420000       0.09650000
   122  H          0.39200000       0.02580000       0.59650000
   123  H          0.89200000       0.47420000       0.40350000
   124  H          0.60800000       0.52580000       0.90350000
   125  H          0.05570000       0.02750000       0.04820000
   126  H          0.44430000       0.97250000       0.54820000
   127  H          0.94430000       0.52750000       0.45180000
   128  H          0.55570000       0.47250000       0.95180000
   129  H          0.25710000       0.00870000       0.06060000
   130  H          0.24290000      -0.00870000       0.56060000
   131  H          0.74290000       0.50870000       0.43940000
   132  H          0.75710000       0.49130000       0.93940000
   133  H          0.01070000       0.84920000       0.04270000
   134  H          0.48930000       0.15080000       0.54270000
   135  H         -0.01070000       0.34920000       0.45730000
   136  H          0.51070000       0.65080000       0.95730000
   137  H          0.15870000       0.88430000       0.00630000
   138  H          0.34130000       0.11570000       0.50630000
   139  H          0.84130000       0.38430000       0.49370000
   140  H          0.65870000       0.61570000       0.99370000
   141  H          0.08130000       0.71060000       0.99390000
   142  H          0.41870000       0.28940000       0.49390000
   143  H          0.91870000       0.21060000       0.50610000
   144  H          0.58130000       0.78940000       0.00610000
   145  H          0.09980000       0.53650000       0.97610000
   146  H          0.40020000       0.46350000       0.47610000
   147  H          0.90020000       0.03650000       0.52390000
   148  H          0.59980000       0.96350000       0.02390000
   149  H          0.44550000       0.49520000       0.08190000
   150  H          0.05450000       0.50480000       0.58190000
   151  H          0.55450000      -0.00480000       0.41810000
   152  H          0.94550000       0.00480000       0.91810000
   153  H          0.43230000       0.66850000       0.09990000
   154  H          0.06770000       0.33150000       0.59990000
   155  H          0.56770000       0.16850000       0.40010000
   156  H          0.93230000       0.83150000       0.90010000
   157  H          0.20830000       0.36550000       0.98850000
   158  H          0.29170000       0.63450000       0.48850000
   159  H          0.79170000       0.86550000       0.51150000
   160  H          0.70830000       0.13450000       0.01150000
   161  H          0.40550000       0.36230000       0.00730000
   162  H          0.09450000       0.63770000       0.50730000
   163  H          0.59450000       0.86230000       0.49270000
   164  H          0.90550000       0.13770000       0.99270000
   165  H          0.87440000       0.24970000       0.11940000
   166  H          0.62560000       0.75030000       0.61940000
   167  H          0.12560000       0.74970000       0.38060000
   168  H          0.37440000       0.25030000       0.88060000
   169  H          0.08750000       0.17010000       0.16650000
   170  H          0.41250000       0.82990000       0.66650000
   171  H          0.91250000       0.67010000       0.33350000
   172  H          0.58750000       0.32990000       0.83350000
   173  H          0.47030000       0.26910000       0.07820000
   174  H          0.02970000       0.73090000       0.57820000
   175  H          0.52970000       0.76910000       0.42180000
   176  H          0.97030000       0.23090000       0.92180000
   177  H          0.52350000       0.87810000       0.11810000
   178  H          0.97650000       0.12190000       0.61810000
   179  H          0.47650000       0.37810000       0.38190000
   180  H          0.02350000       0.62190000       0.88190000
   181  H          0.65280000       0.84570000       0.15950000
   182  H          0.84720000       0.15430000       0.65950000
   183  H          0.34720000       0.34570000       0.34050000
   184  H          0.15280000       0.65430000       0.84050000
   185  H          0.32408000       0.82996000       0.16202000
   186  H          0.17592000       0.17004000       0.66202000
   187  H          0.67592000       0.32996000       0.33798000
   188  H          0.82408000       0.67004000       0.83798000
   189  H          0.44980000       0.97390000       0.23750000
   190  H          0.05020000       0.02610000       0.73750000
   191  H          0.55020000       0.47390000       0.26250000
   192  H          0.94980000       0.52610000       0.76250000
   193  H          0.67205000       0.89597000       0.25571300
   194  H          0.82795000       0.10403000       0.75571300
   195  H          0.32795000       0.39597000       0.24428700
   196  H          0.17205000       0.60403000       0.74428700
   197  H          0.69500000       0.14070000       0.22750000
   198  H          0.80500000       0.85930000       0.72750000
   199  H          0.30500000       0.64070000       0.27250000
   200  H          0.19500000       0.35930000       0.77250000
   201  H          0.55705000       0.19103000       0.29421400
   202  H          0.94295000       0.80897000       0.79421400
   203  H          0.44295000       0.69103000       0.20578600
   204  H          0.05705000       0.30897000       0.70578600
   205  H          0.32140000       0.16800000       0.22240000
   206  H          0.17860000       0.83200000       0.72240000
   207  H          0.67860000       0.66800000       0.27760000
   208  H          0.82140000       0.33200000       0.77760000
   209  H          0.58005000       0.29903000       0.21371200
   210  H          0.91995000       0.70097000       0.71371200
   211  H          0.41995000       0.79903000       0.28628800
   212  H          0.08005000       0.20097000       0.78628800
   213  H          0.79920000       0.05770000       0.16110000
   214  H          0.70080000       0.94230000       0.66110000
   215  H          0.20080000       0.55770000       0.33890000
   216  H          0.29920000       0.44230000       0.83890000
   217  H          0.71750000       0.02140000       0.11190000
   218  H          0.78250000       0.97860000       0.61190000
   219  H          0.28250000       0.52140000       0.38810000
   220  H          0.21750000       0.47860000       0.88810000
   221  O          0.82893000       0.36462000       0.21671000
   222  O          0.67107000       0.63538000       0.71671000
   223  O          0.17107000       0.86462000       0.28329000
   224  O          0.32893000       0.13538000       0.78329000
   225  C          0.85674000       0.44513000       0.19351000
   226  C          0.64326000       0.55487000       0.69351000
   227  C          0.14326000       0.94513000       0.30649000
   228  C          0.35674000       0.05487000       0.80649000
   229  C          0.74075000       0.48573000       0.15441000
   230  C          0.75925000       0.51427000       0.65441000
   231  C          0.25925000       0.98573000       0.34559000
   232  C          0.24075000       0.01427000       0.84559000
   233  C          0.83097000       0.58133000       0.13642000
   234  C          0.66903000       0.41867000       0.63642000
   235  C          0.16903000       0.08133000       0.36358000
   236  C          0.33097000       0.91867000       0.86358000
   237  C          0.00085000       0.59623000       0.16661000
   238  C          0.49915000       0.40377000       0.66661000
   239  C         -0.00085000       0.09623000       0.33339000
   240  C          0.50085000       0.90377000       0.83339000
   241  N         -0.00606000       0.50922000       0.19901000
   242  N          0.50606000       0.49078000       0.69901000
   243  N          0.00606000       0.00922000       0.30099000
   244  N          0.49394000      -0.00922000       0.80099000
   245  C          0.00975000       0.70353000       0.18891000
   246  C          0.49025000       0.29647000       0.68891000
   247  C         -0.00975000       0.20353000       0.31109000
   248  C          0.50975000       0.79647000       0.81109000
   249  O          0.01744000       0.77932000       0.16361000
   250  O          0.48256000       0.22068000       0.66361000
   251  O         -0.01744000       0.27932000       0.33639000
   252  O          0.51744000       0.72068000       0.83639000
   253  O          0.01364000       0.70592000       0.23531000
   254  O          0.48636000       0.29408000       0.73531000
   255  O         -0.01364000       0.20592000       0.26469000
   256  O          0.51364000       0.79408000       0.76469000
   257  H          0.72940000       0.43470000       0.12910000
   258  H          0.77060000       0.56530000       0.62910000
   259  H          0.27060000       0.93470000       0.37090000
   260  H          0.22940000       0.06530000       0.87090000
   261  H          0.62260000       0.50210000       0.16640000
   262  H          0.87740000       0.49790000       0.66640000
   263  H          0.37740000       0.00210000       0.33360000
   264  H          0.12260000      -0.00210000       0.83360000
   265  H          0.75280000       0.64110000       0.13970000
   266  H          0.74720000       0.35890000       0.63970000
   267  H          0.24720000       0.14110000       0.36030000
   268  H          0.25280000       0.85890000       0.86030000
   269  H          0.86160000       0.57350000       0.10300000
   270  H          0.63840000       0.42650000       0.60300000
   271  H          0.13840000       0.07350000       0.39700000
   272  H          0.36160000       0.92650000       0.89700000
   273  H          0.10470000       0.58740000       0.14570000
   274  H          0.39530000       0.41260000       0.64570000
   275  H          0.89530000       0.08740000       0.35430000
   276  H          0.60470000       0.91260000       0.85430000
   277  H          0.07405000       0.49502000       0.21711100
   278  H          0.42595000       0.50498000       0.71711100
   279  H          0.92595000      -0.00498000       0.28288900
   280  H          0.57405000       0.00498000       0.78288900
   281  H          0.96706000       0.64103000       0.25071500
   282  H          0.53294000       0.35897000       0.75071500
   283  H          0.03294000       0.14103000       0.24928500
   284  H          0.46706000       0.85897000       0.74928500
   285  O          0.04704000       0.93002000       0.19681000
   286  O          0.45296000       0.06998000       0.69681000
   287  O          0.95296000       0.43002000       0.30319000
   288  O          0.54704000       0.56998000       0.80319000
