data_VAPXAM
_symmetry_space_group_name_H-M    'P1'
_symmetry_Int_Tables_number       1
loop_
_symmetry_equiv_pos_site_id
_symmetry_equiv_pos_as_xyz
1 x,y,z
_cell_length_a                   7.679501
_cell_length_b                   12.935901
_cell_length_c                   16.534901
_cell_angle_alpha                90.0
_cell_angle_beta                 101.48101
_cell_angle_gamma                90.0
loop_
_atom_site_label
_atom_site_type_symbol
_atom_site_fract_x
_atom_site_fract_y
_atom_site_fract_z
     1  C          0.19424000       0.86272000       0.39442000
     2  C          0.80576000       0.36272000       0.10558000
     3  C          0.80576000       0.13728000       0.60558000
     4  C          0.19424000       0.63728000       0.89442000
     5  Br         0.43203400       0.80709200       0.42982200
     6  Br         0.56796600       0.30709200       0.07017800
     7  Br         0.56796600       0.19290800       0.57017800
     8  Br         0.43203400       0.69290800       0.92982200
     9  Br         0.09025400       0.81615200       0.28286200
    10  Br         0.90974600       0.31615200       0.21713800
    11  Br         0.90974600       0.18384800       0.71713800
    12  Br         0.09025400       0.68384800       0.78286200
    13  Br         0.04534400       0.81447200       0.46965200
    14  Br         0.95465600       0.31447200       0.03034800
    15  Br         0.95465600       0.18552800       0.53034800
    16  Br         0.04534400       0.68552800       0.96965200
    17  Br         0.20484400       0.01295200       0.39701200
    18  Br         0.79515600       0.51295200       0.10298800
    19  Br         0.79515600       0.98704800       0.60298800
    20  Br         0.20484400       0.48704800       0.89701200
    21  Br         0.80913400       0.76483200       0.10298200
    22  Br         0.19086600       0.26483200       0.39701800
    23  Br         0.19086600       0.23516800       0.89701800
    24  Br         0.80913400       0.73516800       0.60298200
    25  N          0.44193000       0.55492000       0.30956140
    26  N          0.55807000       0.05492000       0.19043860
    27  N          0.55807000       0.44508000       0.69043860
    28  N          0.44193000       0.94508000       0.80956140
    29  C          0.28194000       0.52162000       0.24982000
    30  C          0.71806000       0.02162000       0.25018000
    31  C          0.71806000       0.47838000       0.75018000
    32  C          0.28194000       0.97838000       0.74982000
    33  H          0.17844000       0.56312000       0.25792000
    34  H          0.82156000       0.06312000       0.24208000
    35  H          0.82156000       0.43688000       0.74208000
    36  H          0.17844000       0.93688000       0.75792000
    37  H          0.25664000       0.44812000       0.25962000
    38  H          0.74336000       0.94812000       0.24038000
    39  H          0.74336000       0.55188000       0.74038000
    40  H          0.25664000       0.05188000       0.75962000
    41  C          0.30894000       0.53502000       0.16202000
    42  C          0.69106000       0.03502000       0.33798000
    43  C          0.69106000       0.46498000       0.83798000
    44  C          0.30894000       0.96498000       0.66202000
    45  H          0.39914000       0.48512000       0.15082000
    46  H          0.60086000       0.98512000       0.34918000
    47  H          0.60086000       0.51488000       0.84918000
    48  H          0.39914000       0.01488000       0.65082000
    49  H          0.19614000       0.52112000       0.12282000
    50  H          0.80386000       0.02112000       0.37718000
    51  H          0.80386000       0.47888000       0.87718000
    52  H          0.19614000       0.97888000       0.62282000
    53  C          0.36994000       0.64442000       0.15042000
    54  C          0.63006000       0.14442000       0.34958000
    55  C          0.63006000       0.35558000       0.84958000
    56  C          0.36994000       0.85558000       0.65042000
    57  H          0.40174000       0.65162000       0.09552000
    58  H          0.59826000       0.15162000       0.40448000
    59  H          0.59826000       0.34838000       0.90448000
    60  H          0.40174000       0.84838000       0.59552000
    61  H          0.27324000       0.69392000       0.15372000
    62  H          0.72676000       0.19392000       0.34628000
    63  H          0.72676000       0.30608000       0.84628000
    64  H          0.27324000       0.80608000       0.65372000
    65  N          0.52534000       0.66682000       0.21553150
    66  N          0.47466000       0.16682000       0.28446850
    67  N          0.47466000       0.33318000       0.78446850
    68  N          0.52534000       0.83318000       0.71553150
    69  H          0.61125800       0.69683300       0.20592800
    70  H          0.38874200       0.19683300       0.29407200
    71  H          0.38874200       0.30316700       0.79407200
    72  H          0.61125800       0.80316700       0.70592800
    73  C          0.55684000       0.61982000       0.28822000
    74  C          0.44316000       0.11982000       0.21178000
    75  C          0.44316000       0.38018000       0.71178000
    76  C          0.55684000       0.88018000       0.78822000
    77  C          0.73024000       0.64282000       0.34572000
    78  C          0.26976000       0.14282000       0.15428000
    79  C          0.26976000       0.35718000       0.65428000
    80  C          0.73024000       0.85718000       0.84572000
    81  H          0.70574000       0.66632000       0.39932000
    82  H          0.29426000       0.16632000       0.10068000
    83  H          0.29426000       0.33368000       0.60068000
    84  H          0.70574000       0.83368000       0.89932000
    85  H          0.79054000       0.69992000       0.32242000
    86  H          0.20946000       0.19992000       0.17758000
    87  H          0.20946000       0.30008000       0.67758000
    88  H          0.79054000       0.80008000       0.82242000
    89  C          0.85534000       0.54892000       0.36052000
    90  C          0.14466000       0.04892000       0.13948000
    91  C          0.14466000       0.45108000       0.63948000
    92  C          0.85534000       0.95108000       0.86052000
    93  H          0.85304000       0.51392000       0.30702000
    94  H          0.14696000       0.01392000       0.19298000
    95  H          0.14696000       0.48608000       0.69298000
    96  H          0.85304000       0.98608000       0.80702000
    97  H         -0.02186000       0.57392000       0.38102000
    98  H          0.02186000       0.07392000       0.11898000
    99  H          0.02186000       0.42608000       0.61898000
   100  H         -0.02186000       0.92608000       0.88102000
   101  C          0.80944000       0.46992000       0.42172000
   102  C          0.19056000       0.96992000       0.07828000
   103  C          0.19056000       0.53008000       0.57828000
   104  C          0.80944000       0.03008000       0.92172000
   105  H          0.89754000       0.41312000       0.42752000
   106  H          0.10246000       0.91312000       0.07248000
   107  H          0.10246000       0.58688000       0.57248000
   108  H          0.89754000       0.08688000       0.92752000
   109  H          0.82164000       0.50362000       0.47632000
   110  H          0.17836000       0.00362000       0.02368000
   111  H          0.17836000       0.49638000       0.52368000
   112  H          0.82164000      -0.00362000       0.97632000
   113  C          0.62395000       0.42332000       0.39862000
   114  C          0.37605000       0.92332000       0.10138000
   115  C          0.37605000       0.57668000       0.60138000
   116  C          0.62395000       0.07668000       0.89862000
   117  H          0.61315000       0.38622000       0.34552000
   118  H          0.38685000       0.88622000       0.15448000
   119  H          0.38685000       0.61378000       0.65448000
   120  H          0.61315000       0.11378000       0.84552000
   121  H          0.60855000       0.37212000       0.44112000
   122  H          0.39145000       0.87212000       0.05888000
   123  H          0.39145000       0.62788000       0.55888000
   124  H          0.60855000       0.12788000       0.94112000
   125  C          0.47654000       0.50352000       0.39072000
   126  C          0.52346000       0.00352000       0.10928000
   127  C          0.52346000       0.49648000       0.60928000
   128  C          0.47654000      -0.00352000       0.89072000
   129  H          0.36624000       0.46942000       0.39922000
   130  H          0.63376000       0.96942000       0.10078000
   131  H          0.63376000       0.53058000       0.60078000
   132  H          0.36624000       0.03058000       0.89922000
   133  H          0.50984000       0.55622000       0.43442000
   134  H          0.49016000       0.05622000       0.06558000
   135  H          0.49016000       0.44378000       0.56558000
   136  H          0.50984000       0.94378000       0.93442000
