data_VAQKUV
_symmetry_space_group_name_H-M    'P1'
_symmetry_Int_Tables_number       1
loop_
_symmetry_equiv_pos_site_id
_symmetry_equiv_pos_as_xyz
1 x,y,z
_cell_length_a                   4.849911
_cell_length_b                   12.0373
_cell_length_c                   12.8042
_cell_angle_alpha                64.56115
_cell_angle_beta                 86.81517
_cell_angle_gamma                83.89317
loop_
_atom_site_label
_atom_site_type_symbol
_atom_site_fract_x
_atom_site_fract_y
_atom_site_fract_z
     1  I          0.95821700       0.47042700       0.41265200
     2  I          0.04178300       0.52957300       0.58734800
     3  O          0.88276000       0.36238000       0.25152000
     4  O          0.11724000       0.63762000       0.74848000
     5  O          0.74835000       0.13218000       0.23802190
     6  O          0.25165000       0.86782000       0.76197810
     7  O          0.56755000       0.86208000       0.92057190
     8  O          0.43245000       0.13792000       0.07942810
     9  O          0.79436000       0.62528000       0.09862000
    10  O          0.20564000       0.37472000       0.90138000
    11  C          0.39847000       0.96907000       0.73133000
    12  C          0.60153000       0.03093000       0.26867000
    13  C          0.56987000       0.96567000       0.81693000
    14  C          0.43013000       0.03433000       0.18307000
    15  C          0.91128000       0.13757000       0.32493000
    16  C          0.08872000       0.86243000       0.67507000
    17  H          0.04590000       0.06600000       0.35490000
    18  H          0.95410000       0.93400000       0.64510000
    19  H          0.79310000       0.13830000       0.38840000
    20  H          0.20690000       0.86170000       0.61160000
    21  C          0.05638000       0.25336000       0.27114000
    22  C          0.94362000       0.74664000       0.72886000
    23  H          0.20650000       0.24680000       0.32100000
    24  H          0.79350000       0.75320000       0.67900000
    25  H          0.13750000       0.26030000       0.19780000
    26  H          0.86250000       0.73970000       0.80220000
    27  C          0.72768000       0.06323000       0.79373000
    28  C          0.27232000       0.93677000       0.20627000
    29  H          0.84470000       0.06120000       0.84970000
    30  H          0.15530000       0.93880000       0.15030000
    31  C          0.54108000       0.16903000       0.60383000
    32  C          0.45892000       0.83097000       0.39617000
    33  H          0.52860000       0.23790000       0.53280000
    34  H          0.47140000       0.76210000       0.46720000
    35  C          0.38468000       0.07053000       0.62523000
    36  C          0.61532000       0.92947000       0.37477000
    37  H          0.27080000       0.07310000       0.56800000
    38  H          0.72920000       0.92690000       0.43200000
    39  C          0.71029000       0.16433000       0.68583000
    40  C          0.28971000       0.83567000       0.31417000
    41  H          0.81700000       0.22950000       0.67030000
    42  H          0.18300000       0.77050000       0.32970000
    43  C          0.73689000       0.41637000       0.14693000
    44  C          0.26311000       0.58363000       0.85307000
    45  H          0.59920000       0.36310000       0.14780000
    46  H          0.40080000       0.63690000       0.85220000
    47  H          0.86400000       0.42670000       0.08280000
    48  H          0.13600000       0.57330000       0.91720000
    49  C          0.59859000       0.53846000       0.13164000
    50  C          0.40141000       0.46154000       0.86836000
    51  H          0.45720000       0.56550000       0.07290000
    52  H          0.54280000       0.43450000       0.92710000
    53  H          0.50910000       0.53160000       0.20360000
    54  H          0.49090000       0.46840000       0.79640000
    55  C          0.70471100       0.73407000       0.11263000
    56  C          0.29528900       0.26593000       0.88737000
    57  H          0.80030000       0.73380000       0.17720000
    58  H          0.19970000       0.26620000       0.82280000
    59  H          0.50740000       0.73570000       0.12980000
    60  H          0.49260000       0.26430000       0.87020000
    61  C          0.76109000       0.84697000       0.00573000
    62  C          0.23891000       0.15303000      -0.00573000
    63  H          0.74220000       0.91880000       0.02240000
    64  H          0.25780000       0.08120000       0.97760000
    65  H          0.94850000       0.83790000       0.97800000
    66  H          0.05150000       0.16210000       0.02200000
