data_VARMAG
_symmetry_space_group_name_H-M    'P1'
_symmetry_Int_Tables_number       1
loop_
_symmetry_equiv_pos_site_id
_symmetry_equiv_pos_as_xyz
1 x,y,z
_cell_length_a                   4.26713
_cell_length_b                   28.492518
_cell_length_c                   13.37028
_cell_angle_alpha                90.0
_cell_angle_beta                 95.4152
_cell_angle_gamma                90.0
loop_
_atom_site_label
_atom_site_type_symbol
_atom_site_fract_x
_atom_site_fract_y
_atom_site_fract_z
     1  I          0.33940400       0.69239200       0.61719200
     2  I          0.16059600       0.19239200       0.88280800
     3  I          0.66059600       0.30760800       0.38280800
     4  I          0.83940400       0.80760800       0.11719200
     5  I          0.89441600       0.48518200       0.74215200
     6  I          0.60558400       0.98518200       0.75784800
     7  I          0.10558400       0.51481800       0.25784800
     8  I          0.39441600       0.01481800       0.24215200
     9  S          0.03583150       0.59833200       0.71314500
    10  S          0.46416850       0.09833200       0.78685500
    11  S          0.96416850       0.40166800       0.28685500
    12  S          0.53583150       0.90166800       0.21314500
    13  C          0.22306000       0.62148800       0.61581190
    14  C          0.27694000       0.12148800       0.88418810
    15  C          0.77694000       0.37851200       0.38418810
    16  C          0.72306000       0.87851200       0.11581190
    17  C          0.29936000       0.58747900       0.55012000
    18  C          0.20064000       0.08747900       0.94988000
    19  C          0.70064000       0.41252100       0.44988000
    20  C          0.79936000       0.91252100       0.05012000
    21  H          0.40234100       0.59351400       0.49146800
    22  H          0.09765900       0.09351400       0.00853200
    23  H          0.59765900       0.40648600       0.50853200
    24  H          0.90234100       0.90648600      -0.00853200
    25  C          0.20606000       0.54192900       0.57982000
    26  C          0.29394000       0.04192900       0.92018000
    27  C          0.79394000       0.45807100       0.42018000
    28  C          0.70606000       0.95807100       0.07982000
    29  H          0.24168100       0.51415300       0.54322400
    30  H          0.25831900       0.01415300       0.95677600
    31  H          0.75831900       0.48584700       0.45677600
    32  H          0.74168100       0.98584700       0.04322400
    33  C          0.06086000       0.54234800       0.66602000
    34  C          0.43914000       0.04234800       0.83398000
    35  C          0.93914000       0.45765200       0.33398000
    36  C          0.56086000       0.95765200       0.16602000
    37  N          0.55405000       0.79462700       0.63298160
    38  N          0.94595000       0.29462700       0.86701840
    39  N          0.44595000       0.20537300       0.36701840
    40  N          0.05405000       0.70537300       0.13298160
    41  N          0.73935000       0.89013700       0.65878160
    42  N          0.76065000       0.39013700       0.84121840
    43  N          0.26065000       0.10986300       0.34121840
    44  N          0.23935000       0.60986300       0.15878160
    45  C          0.43676000       0.82849900       0.56968190
    46  C          0.06324000       0.32849900       0.93031810
    47  C          0.56324000       0.17150100       0.43031810
    48  C          0.93676000       0.67150100       0.06968190
    49  C          0.21596000       0.81643900       0.48722000
    50  C          0.28404000       0.31643900       0.01278000
    51  C          0.78404000       0.18356100       0.51278000
    52  C          0.71596000       0.68356100       0.98722000
    53  H          0.15513100       0.78459300       0.47676500
    54  H          0.34486900       0.28459300       0.02323500
    55  H          0.84486900       0.21540700       0.52323500
    56  H          0.65513100       0.71540700       0.97676500
    57  C          0.09147000       0.84999100       0.42322000
    58  C          0.40853000       0.34999100       0.07678000
    59  C          0.90853000       0.15000900       0.57678000
    60  C          0.59147000       0.65000900       0.92322000
    61  H          0.94421400       0.84148500       0.36842200
    62  H          0.55578600       0.34148500       0.13157800
    63  H          0.05578600       0.15851500       0.63157800
    64  H          0.44421400       0.65851500       0.86842200
    65  C          0.18007000       0.89791900       0.43772000
    66  C          0.31993000       0.39791900       0.06228000
    67  C          0.81993000       0.10208100       0.56228000
    68  C          0.68007000       0.60208100       0.93772000
    69  H          0.08942800       0.92101900       0.39255600
    70  H          0.41057200       0.42101900       0.10744400
    71  H          0.91057200       0.07898100       0.60744400
    72  H          0.58942800       0.57898100       0.89255600
    73  C          0.39157000       0.91114900       0.51482000
    74  C          0.10843000       0.41114900       0.98518000
    75  C          0.60843000       0.08885100       0.48518000
    76  C          0.89157000       0.58885100       0.01482000
    77  H          0.44852900       0.94322500       0.52324500
    78  H          0.05147100       0.44322500       0.97675500
    79  H          0.55147100       0.05677500       0.47675500
    80  H          0.94852900       0.55677500       0.02324500
    81  C          0.52786000       0.87669900       0.58306190
    82  C         -0.02786000       0.37669900       0.91693810
    83  C          0.47214000       0.12330100       0.41693810
    84  C          0.02786000       0.62330100       0.08306190
    85  C          0.76406000       0.80807800       0.70845190
    86  C          0.73594000       0.30807800       0.79154810
    87  C          0.23594000       0.19192200       0.29154810
    88  C          0.26406000       0.69192200       0.20845190
    89  C          0.89346000       0.77405900       0.77932000
    90  C          0.60654000       0.27405900       0.72068000
    91  C          0.10654000       0.22594100       0.22068000
    92  C          0.39346000       0.72594100       0.27932000
    93  H          0.83056300       0.74213100       0.77268900
    94  H          0.66943700       0.24213100       0.72731100
    95  H          0.16943700       0.25786900       0.22731100
    96  H          0.33056300       0.75786900       0.27268900
    97  C          0.10696000       0.78735900       0.85652000
    98  C          0.39304000       0.28735900       0.64348000
    99  C          0.89304000       0.21264100       0.14348000
   100  C          0.60696000       0.71264100       0.35652000
   101  H          0.18971200       0.76454700       0.90365900
   102  H          0.31028800       0.26454700       0.59634100
   103  H          0.81028800       0.23545300       0.09634100
   104  H          0.68971200       0.73545300       0.40365900
   105  C          0.20776000       0.83501100       0.86752000
   106  C          0.29224000       0.33501100       0.63248000
   107  C          0.79224000       0.16498900       0.13248000
   108  C          0.70776000       0.66498900       0.36752000
   109  H          0.35919600       0.84345700       0.92117100
   110  H          0.14080400       0.34345700       0.57882900
   111  H          0.64080400       0.15654300       0.07882900
   112  H          0.85919600       0.65654300       0.42117100
   113  C          0.08866000       0.86849900       0.80175190
   114  C          0.41134000       0.36849900       0.69824810
   115  C          0.91134000       0.13150100       0.19824810
   116  C          0.58866000       0.63150100       0.30175190
   117  H          0.15806400       0.90006500       0.80967000
   118  H          0.34193600       0.40006500       0.69033000
   119  H          0.84193600       0.09993500       0.19033000
   120  H          0.65806400       0.59993500       0.30967000
   121  C          0.85946000       0.85632900       0.72080190
   122  C          0.64054000       0.35632900       0.77919810
   123  C          0.14054000       0.14367100       0.27919810
   124  C          0.35946000       0.64367100       0.22080190
