data_VARMIO
_symmetry_space_group_name_H-M    'P1'
_symmetry_Int_Tables_number       1
loop_
_symmetry_equiv_pos_site_id
_symmetry_equiv_pos_as_xyz
1 x,y,z
_cell_length_a                   18.21428
_cell_length_b                   8.66673
_cell_length_c                   19.33849
_cell_angle_alpha                90.0
_cell_angle_beta                 116.2492
_cell_angle_gamma                90.0
loop_
_atom_site_label
_atom_site_type_symbol
_atom_site_fract_x
_atom_site_fract_y
_atom_site_fract_z
     1  I          0.66358200       0.88925300       0.80034200
     2  I          0.83641800       0.38925300       0.69965800
     3  I          0.33641800       0.11074700       0.19965800
     4  I          0.16358200       0.61074700       0.30034200
     5  I          0.72914200       0.79694300       0.49751200
     6  I          0.77085800       0.29694300       0.00248800
     7  I          0.27085800       0.20305700       0.50248800
     8  I          0.22914200       0.70305700      -0.00248800
     9  S          0.70080500       0.76507100       0.65681500
    10  S          0.79919500       0.26507100       0.84318500
    11  S          0.29919500       0.23492900       0.34318500
    12  S          0.20080500       0.73492900       0.15681500
    13  C          0.68382000       0.92204000       0.70262000
    14  C          0.81618000       0.42204000       0.79738000
    15  C          0.31618000       0.07796000       0.29738000
    16  C          0.18382000       0.57796000       0.20262000
    17  C          0.68182000       0.05554000       0.66562000
    18  C          0.81818000       0.55554000       0.83438000
    19  C          0.31818000       0.94446000       0.33438000
    20  C          0.18182000       0.44446000       0.16562000
    21  H          0.67314200       0.15374600       0.68246700
    22  H          0.82685800       0.65374600       0.81753300
    23  H          0.32685800       0.84625400       0.31753300
    24  H          0.17314200       0.34625400       0.18246700
    25  C          0.69422000       0.03314000       0.59842000
    26  C          0.80578000       0.53314000       0.90158000
    27  C          0.30578000       0.96686000       0.40158000
    28  C          0.19422000       0.46686000       0.09842000
    29  H          0.69498100       0.11435900       0.56583600
    30  H          0.80501900       0.61435900       0.93416400
    31  H          0.30501900       0.88564100       0.43416400
    32  H          0.19498100       0.38564100       0.06583600
    33  C          0.70482000       0.88174000       0.58652000
    34  C          0.79518000       0.38174000       0.91348000
    35  C          0.29518000       0.11826000       0.41348000
    36  C          0.20482000       0.61826000       0.08652000
    37  I          0.61679200       0.78724300       0.94975200
    38  I          0.88320800       0.28724300       0.55024800
    39  I          0.38320800       0.21275700       0.05024800
    40  I          0.11679200       0.71275700       0.44975200
    41  I          0.21585200       0.24881200       0.65838200
    42  I          0.28414800       0.74881200       0.84161800
    43  I          0.78414800       0.75118800       0.34161800
    44  I          0.71585200       0.25118800       0.15838200
    45  N          0.02705170       0.76883000       0.62328160
    46  N          0.47294830       0.26883000       0.87671840
    47  N          0.97294830       0.23117000       0.37671840
    48  N          0.52705170       0.73117000       0.12328160
    49  C         -0.00268000       0.79864000       0.68278190
    50  C          0.50268000       0.29864000       0.81721810
    51  C          0.00268000       0.20136000       0.31721810
    52  C          0.49732000       0.70136000       0.18278190
    53  C          0.93072000       0.89574000       0.66532000
    54  C          0.56928000       0.39574000       0.83468000
    55  C          0.06928000       0.10426000       0.33468000
    56  C          0.43072000       0.60426000       0.16532000
    57  H          0.90253000       0.93781900       0.61498000
    58  H          0.59747000       0.43781900       0.88502000
    59  H          0.09747000       0.06218100       0.38502000
    60  H          0.40253000       0.56218100       0.11498000
    61  C          0.90542000       0.93124000       0.72102000
    62  C          0.59458000       0.43124000       0.77898000
    63  C          0.09458000       0.06876000       0.27898000
    64  C          0.40542000       0.56876000       0.22102000
    65  H          0.85941500      -0.00329700       0.70867500
    66  H          0.64058500       0.49670300       0.79132500
    67  H          0.14058500       0.00329700       0.29132500
    68  H          0.35941500       0.50329700       0.20867500
    69  C          0.94672000       0.87184000       0.79492000
    70  C          0.55328000       0.37184000       0.70508000
    71  C          0.05328000       0.12816000       0.20508000
    72  C          0.44672000       0.62816000       0.29492000
    73  H          0.92956900       0.89674300       0.83335600
    74  H          0.57043100       0.39674300       0.66664400
    75  H          0.07043100       0.10325700       0.16664400
    76  H          0.42956900       0.60325700       0.33335600
    77  C          0.01302000       0.77595000       0.81182000
    78  C          0.48698000       0.27595000       0.68818000
    79  C          0.98698000       0.22405000       0.18818000
    80  C          0.51302000       0.72405000       0.31182000
    81  H          0.04091700       0.73373900       0.86213400
    82  H          0.45908300       0.23373900       0.63786600
    83  H          0.95908300       0.26626100       0.13786600
    84  H          0.54091700       0.76626100       0.36213400
    85  C          0.03962000       0.74004000       0.75702000
    86  C          0.46038000       0.24004000       0.74298000
    87  C          0.96038000       0.25996000       0.24298000
    88  C          0.53962000       0.75996000       0.25702000
    89  H          0.08624600       0.67611600       0.76990000
    90  H          0.41375400       0.17611600       0.73010000
    91  H          0.91375400       0.32388400       0.23010000
    92  H          0.58624600       0.82388400       0.26990000
    93  C          0.95682000       0.75355000       0.54322000
    94  C          0.54318000       0.25355000       0.95678000
    95  C          0.04318000       0.24645000       0.45678000
    96  C          0.45682000       0.74645000       0.04322000
    97  H          0.92044000       0.66993700       0.54288600
    98  H          0.57956000       0.16993700       0.95711400
    99  H          0.07956000       0.33006300       0.45711400
   100  H          0.42044000       0.83006300       0.04288600
   101  H          0.97857800       0.73003400       0.50618700
   102  H          0.52142200       0.23003400      -0.00618700
   103  H          0.02142200       0.26996600       0.49381300
   104  H          0.47857800       0.76996600       0.00618700
   105  H          0.92612500       0.85054100       0.52870200
   106  H          0.57387500       0.35054100       0.97129800
   107  H          0.07387500       0.14945900       0.47129800
   108  H          0.42612500       0.64945900       0.02870200
   109  C          0.07632000       0.62184000       0.63802000
   110  C          0.42368000       0.12184000       0.86198000
   111  C          0.92368000       0.37816000       0.36198000
   112  C          0.57632000       0.87816000       0.13802000
   113  H          0.12505300       0.62942400       0.68768500
   114  H          0.37494700       0.12942400       0.81231500
   115  H          0.87494700       0.37057600       0.31231500
   116  H          0.62505300       0.87057600       0.18768500
   117  H          0.09305100       0.60650000       0.59681700
   118  H          0.40694900       0.10650000       0.90318300
   119  H          0.90694900       0.39350000       0.40318300
   120  H          0.59305100       0.89350000       0.09681700
   121  H          0.04281700       0.53427900       0.63913700
   122  H          0.45718300       0.03427900       0.86086300
   123  H          0.95718300       0.46572100       0.36086300
   124  H          0.54281700       0.96572100       0.13913700
   125  C          0.08092000       0.90304000       0.62442000
   126  C          0.41908000       0.40304000       0.87558000
   127  C          0.91908000       0.09696000       0.37558000
   128  C          0.58092000       0.59696000       0.12442000
   129  H          0.04919000      -0.00108700       0.61333300
   130  H          0.45081000       0.49891300       0.88666700
   131  H          0.95081000       0.00108700       0.38666700
   132  H          0.54919000       0.50108700       0.11333300
   133  H          0.10047500       0.88676200       0.58524800
   134  H          0.39952500       0.38676200       0.91475200
   135  H          0.89952500       0.11323800       0.41475200
   136  H          0.60047500       0.61323800       0.08524800
   137  H          0.12775100       0.91012800       0.67539900
   138  H          0.37224900       0.41012800       0.82460100
   139  H          0.87224900       0.08987200       0.32460100
   140  H          0.62775100       0.58987200       0.17539900
   141  N          0.36584170       0.73633000       0.66127160
   142  N          0.13415830       0.23633000       0.83872840
   143  N          0.63415830       0.26367000       0.33872840
   144  N          0.86584170       0.76367000       0.16127160
   145  C          0.39942000       0.73184000       0.60353190
   146  C          0.10058000       0.23184000       0.89646810
   147  C          0.60058000       0.26816000       0.39646810
   148  C          0.89942000       0.76816000       0.10353190
   149  C          0.37462000       0.61994000       0.54632000
   150  C          0.12538000       0.11994000       0.95368000
   151  C          0.62538000       0.38006000       0.45368000
   152  C          0.87462000       0.88006000       0.04632000
   153  H          0.33397900       0.54654900       0.54183500
   154  H          0.16602100       0.04654900       0.95816500
   155  H          0.66602100       0.45345100       0.45816500
   156  H          0.83397900       0.95345100       0.04183500
   157  C          0.40982000       0.61684000       0.49602000
   158  C          0.09018000       0.11684000       0.00398000
   159  C          0.59018000       0.38316000       0.50398000
   160  C          0.90982000       0.88316000      -0.00398000
   161  H          0.39337500       0.54000900       0.45695600
   162  H          0.10662500       0.04000900       0.04304400
   163  H          0.60662500       0.45999100       0.54304400
   164  H          0.89337500       0.95999100       0.95695600
   165  C          0.46872000       0.72414000       0.50152000
   166  C          0.03128000       0.22414000      -0.00152000
   167  C          0.53128000       0.27586000       0.49848000
   168  C          0.96872000       0.77586000       0.00152000
   169  H          0.49337500       0.71938900       0.46735600
   170  H          0.00662500       0.21938900       0.03264400
   171  H          0.50662500       0.28061100       0.53264400
   172  H         -0.00662500       0.78061100       0.96735600
   173  C          0.49122000       0.83824000       0.55742000
   174  C          0.00878000       0.33824000       0.94258000
   175  C          0.50878000       0.16176000       0.44258000
   176  C         -0.00878000       0.66176000       0.05742000
   177  H          0.53035600       0.91375900       0.56067300
   178  H          0.96964400       0.41375900       0.93932700
   179  H          0.46964400       0.08624100       0.43932700
   180  H          0.03035600       0.58624100       0.06067300
   181  C          0.45682000       0.84264000       0.60852000
   182  C          0.04318000       0.34264000       0.89148000
   183  C          0.54318000       0.15736000       0.39148000
   184  C          0.95682000       0.65736000       0.10852000
   185  H          0.47239900       0.92087200       0.64680300
   186  H          0.02760100       0.42087200       0.85319700
   187  H          0.52760100       0.07912800       0.35319700
   188  H          0.97239900       0.57912800       0.14680300
   189  C          0.31232000       0.87684000       0.64802000
   190  C          0.18768000       0.37684000       0.85198000
   191  C          0.68768000       0.12316000       0.35198000
   192  C          0.81232000       0.62316000       0.14802000
   193  H          0.34401900       0.96982100       0.65063400
   194  H          0.15598100       0.46982100       0.84936600
   195  H          0.65598100       0.03017900       0.34936600
   196  H          0.84401900       0.53017900       0.15063400
   197  H          0.29279700       0.88175100       0.68776300
   198  H          0.20720300       0.38175100       0.81223700
   199  H          0.70720300       0.11824900       0.31223700
   200  H          0.79279700       0.61824900       0.18776300
   201  H          0.26536000       0.87002300       0.59706500
   202  H          0.23464000       0.37002300       0.90293500
   203  H          0.73464000       0.12997700       0.40293500
   204  H          0.76536000       0.62997700       0.09706500
   205  C          0.31372000       0.59664000       0.65622000
   206  C          0.18628000       0.09664000       0.84378000
   207  C          0.68628000       0.40336000       0.34378000
   208  C          0.81372000       0.90336000       0.15622000
   209  H          0.29520200       0.60255500       0.69662200
   210  H          0.20479800       0.10255500       0.80337800
   211  H          0.70479800       0.39744500       0.30337800
   212  H          0.79520200       0.89744500       0.19662200
   213  H          0.34619300       0.50258500       0.66322300
   214  H          0.15380700       0.00258500       0.83677700
   215  H          0.65380700       0.49741500       0.33677700
   216  H          0.84619300      -0.00258500       0.16322300
   217  H          0.26614700       0.59419100       0.60557700
   218  H          0.23385300       0.09419100       0.89442300
   219  H          0.73385300       0.40580900       0.39442300
   220  H          0.76614700       0.90580900       0.10557700
   221  C          0.43492000       0.74164000       0.74224190
   222  C          0.06508000       0.24164000       0.75775810
   223  C          0.56508000       0.25836000       0.25775810
   224  C          0.93492000       0.75836000       0.24224190
   225  H          0.46533100       0.83839000       0.74954500
   226  H          0.03466900       0.33839000       0.75045500
   227  H          0.53466900       0.16161000       0.25045500
   228  H          0.96533100       0.66161000       0.24954500
   229  H          0.47187300       0.65422600       0.74987900
   230  H          0.02812700       0.15422600       0.75012100
   231  H          0.52812700       0.34577400       0.25012100
   232  H          0.97187300       0.84577400       0.24987900
   233  H          0.41231100       0.73575100       0.77967400
   234  H          0.08768900       0.23575100       0.72032600
   235  H          0.58768900       0.26424900       0.22032600
   236  H          0.91231100       0.76424900       0.27967400
