data_VARMOU
_symmetry_space_group_name_H-M    'P1'
_symmetry_Int_Tables_number       1
loop_
_symmetry_equiv_pos_site_id
_symmetry_equiv_pos_as_xyz
1 x,y,z
_cell_length_a                   9.47206
_cell_length_b                   17.400211
_cell_length_c                   19.547612
_cell_angle_alpha                96.2032
_cell_angle_beta                 103.7792
_cell_angle_gamma                100.5522
loop_
_atom_site_label
_atom_site_type_symbol
_atom_site_fract_x
_atom_site_fract_y
_atom_site_fract_z
     1  I          0.51528500       0.30240300       0.80139200
     2  I          0.48471500       0.69759700       0.19860800
     3  I          0.65127500       0.68887300       0.86326200
     4  I          0.34872500       0.31112700       0.13673800
     5  S          0.52927190       0.49488100       0.85250900
     6  S          0.47072810       0.50511900       0.14749100
     7  C          0.58207000       0.42344000       0.80144000
     8  C          0.41793000       0.57656000       0.19856000
     9  C          0.67607000       0.45754000       0.76504000
    10  C          0.32393000       0.54246000       0.23496000
    11  H          0.71612300       0.42799300       0.73351400
    12  H          0.28387700       0.57200700       0.26648600
    13  C          0.70818000       0.54154000       0.77884000
    14  C          0.29182000       0.45846000       0.22116000
    15  H          0.77293500       0.57397900       0.75802700
    16  H          0.22706500       0.42602100       0.24197300
    17  C          0.63677000       0.57064000       0.82464000
    18  C          0.36323000       0.42936000       0.17536000
    19  C          0.28399000       0.56704000       0.59274000
    20  C          0.71601000       0.43296000       0.40726000
    21  H          0.23081700       0.51401200       0.58821900
    22  H          0.76918300       0.48598800       0.41178100
    23  C          0.58757000       0.94574000       0.64924000
    24  C          0.41243000       0.05426000       0.35076000
    25  H          0.54337400       0.95279500       0.60026600
    26  H          0.45662600       0.04720500       0.39973400
    27  H          0.69358600       0.94629500       0.65565600
    28  H          0.30641400       0.05370500       0.34434400
    29  H          0.57613500       0.98873000       0.68277400
    30  H          0.42386500       0.01127000       0.31722600
    31  C          0.29597000       0.69564000       0.56044000
    32  C          0.70403000       0.30436000       0.43956000
    33  H          0.25021200       0.73116400       0.53371700
    34  H          0.74978800       0.26883600       0.46628300
    35  C          0.50608000       0.66824000       0.64414000
    36  C          0.49392000       0.33176000       0.35586000
    37  H          0.60425500       0.68465600       0.67443000
    38  H          0.39574500       0.31534400       0.32557000
    39  N          0.51035000       0.86793000       0.66303000
    40  N          0.48965000       0.13207000       0.33697000
    41  C          0.52577000       0.80404000       0.60663000
    42  C          0.47423000       0.19596000       0.39337000
    43  H          0.49284300       0.81961300       0.55907600
    44  H          0.50715700       0.18038700       0.44092400
    45  H          0.63237900       0.80265100       0.61484300
    46  H          0.36762100       0.19734900       0.38515700
    47  C          0.21888000       0.61854000       0.55434000
    48  C          0.78112000       0.38146000       0.44566000
    49  H          0.12099900       0.60127900       0.52357800
    50  H          0.87900100       0.39872100       0.47642200
    51  C          0.42619000       0.59105000       0.63804000
    52  C          0.57381000       0.40895000       0.36196000
    53  H          0.46914400       0.55482500       0.66489900
    54  H          0.53085600       0.44517500       0.33510100
    55  C          0.35256000       0.87014000       0.65694000
    56  C          0.64744000       0.12986000       0.34306000
    57  H          0.29893200       0.81860600       0.66300500
    58  H          0.70106800       0.18139400       0.33699500
    59  H          0.30733200       0.88195900       0.60973900
    60  H          0.69266800       0.11804100       0.39026100
    61  H          0.34663000       0.91127100       0.69387300
    62  H          0.65337000       0.08872900       0.30612700
    63  C          0.58347000       0.85604000       0.73653000
    64  C          0.41653000       0.14396000       0.26347000
    65  H          0.57757100       0.89959400       0.77123700
    66  H          0.42242900       0.10040600       0.22876300
    67  H          0.68802500       0.85501200       0.74024200
    68  H          0.31197500       0.14498800       0.25975800
    69  H          0.53252000       0.80572800       0.74628600
    70  H          0.46748000       0.19427200       0.25371400
    71  C          0.43967000       0.72194000       0.60493000
    72  C          0.56033000       0.27806000       0.39507000
    73  C          0.17959000       0.42464000       0.90234000
    74  C          0.82041000       0.57536000       0.09766000
    75  H          0.22762700       0.47818400       0.90492200
    76  H          0.77237300       0.52181600       0.09507800
    77  C          0.96162000       0.31864000       0.85874000
    78  C          0.03838000       0.68136000       0.14126000
    79  H          0.86051700       0.30018500       0.83252700
    80  H          0.13948300       0.69981500       0.16747300
    81  C          0.25508000       0.37404000       0.93724000
    82  C          0.74492000       0.62596000       0.06276000
    83  H          0.35536900       0.39311600       0.96442800
    84  H          0.64463100       0.60688400       0.03557200
    85  C          0.03199000       0.39715000       0.86314000
    86  C          0.96801000       0.60285000       0.13686000
    87  H         -0.02109200       0.43206800       0.83919900
    88  H          0.02109200       0.56793200       0.16080100
    89  N          0.97704000       0.12183000       0.83443000
    90  N          0.02296000       0.87817000       0.16557000
    91  C          0.90262000       0.04324000       0.84764000
    92  C          0.09738000       0.95676000       0.15236000
    93  H          0.90964400       0.00113500       0.81173400
    94  H          0.09035600      -0.00113500       0.18826600
    95  H          0.79766600       0.04264800       0.84449500
    96  H          0.20233400       0.95735200       0.15550500
    97  H          0.95195700       0.03427300       0.89529400
    98  H          0.04804300       0.96572700       0.10470600
    99  C          0.90083000       0.13544000       0.76233000
   100  C          0.09917000       0.86456000       0.23767000
   101  H          0.94641800       0.18788600       0.75442400
   102  H          0.05358200       0.81211400       0.24557600
   103  H          0.79515400       0.13261600       0.75901800
   104  H          0.20484600       0.86738400       0.24098200
   105  H          0.91095400       0.09481900       0.72602600
   106  H          0.08904600       0.90518100       0.27397400
   107  C          0.13647000       0.12104000       0.83813000
   108  C          0.86353000       0.87896000       0.16187000
   109  H          0.14115100       0.07844300       0.80209100
   110  H          0.85884900       0.92155700       0.19790900
   111  H          0.18652200       0.11214200       0.88562000
   112  H          0.81347800       0.88785800       0.11438000
   113  H          0.18595300       0.17198700       0.82892700
   114  H          0.81404700       0.82801300       0.17107300
   115  C          0.96263000       0.18324000       0.89283000
   116  C          0.03737000       0.81676000       0.10717000
   117  H          0.85562700       0.18193100       0.88739500
   118  H          0.14437300       0.81806900       0.11260500
   119  H          0.00291200       0.16786600       0.93965600
   120  H         -0.00291200       0.83213400       0.06034400
   121  C          0.04067000       0.26684000       0.89313000
   122  C          0.95933000       0.73316000       0.10687000
   123  C          0.18727000       0.29514000       0.93333000
   124  C          0.81273000       0.70486000       0.06667000
   125  H          0.24073200       0.26073100       0.95789200
   126  H          0.75926800       0.73926900       0.04210800
   127  C          0.61019000       0.60745000       0.48604000
   128  C          0.38981000       0.39255000       0.51396000
   129  H          0.57616400       0.56468000       0.50862500
   130  H          0.42383600       0.43532000       0.49137500
   131  C          0.82857000       0.94764000       0.39063000
   132  C          0.17143000       0.05236000       0.60937000
   133  H          0.82866500       0.00001300       0.41472000
   134  H          0.17133500      -0.00001300       0.58528000
   135  H          0.77055600       0.94033400       0.34070700
   136  H          0.22944400       0.05966600       0.65929300
   137  H          0.93108400       0.94341900       0.39234600
   138  H          0.06891600       0.05658100       0.60765400
   139  C          0.55787000       0.69904000       0.40564000
   140  C          0.44213000       0.30096000       0.59436000
   141  H          0.48748100       0.71779600       0.37196000
   142  H          0.51251900       0.28220400       0.62804000
   143  C          0.80868000       0.70634000       0.47144000
   144  C          0.19132000       0.29366000       0.52856000
   145  H          0.91133500       0.73104000       0.48395600
   146  H          0.08866500       0.26896000       0.51604400
   147  N          0.76025000       0.88503000       0.42723000
   148  N          0.23975000       0.11497000       0.57277000
   149  C          0.76247000       0.80484000       0.38863000
   150  C          0.23753000       0.19516000       0.61137000
   151  H          0.70008900       0.79788200       0.33898200
   152  H          0.29991100       0.20211800       0.66101800
   153  H          0.86568900       0.80450300       0.38644300
   154  H          0.13431100       0.19549700       0.61355700
   155  C          0.50988000       0.63574000       0.43734000
   156  C          0.49012000       0.36426000       0.56266000
   157  H          0.40692300       0.61147200       0.42544200
   158  H          0.59307700       0.38852800       0.57455800
   159  C          0.76149000       0.64174000       0.50214000
   160  C          0.23851000       0.35826000       0.49786000
   161  H          0.83170500       0.62080200       0.53399800
   162  H          0.16829500       0.37919800       0.46600200
   163  C          0.60326000       0.89264000       0.42474000
   164  C          0.39674000       0.10736000       0.57526000
   165  H          0.55542300       0.84955100       0.44555700
   166  H          0.44457700       0.15044900       0.55444300
   167  H          0.54697900       0.88939900       0.37504900
   168  H          0.45302100       0.11060100       0.62495100
   169  H          0.60501300       0.94360800       0.45193900
   170  H          0.39498700       0.05639200       0.54806100
   171  C          0.84727000       0.89764000       0.50373000
   172  C          0.15273000       0.10236000       0.49627000
   173  H          0.84764100       0.95054400       0.52670800
   174  H          0.15235900       0.04945600       0.47329200
   175  H          0.94975500       0.89271200       0.50628800
   176  H          0.05024500       0.10728800       0.49371200
   177  H          0.80123400       0.85766500       0.52812000
   178  H          0.19876600       0.14233500       0.47188000
   179  C          0.70797000       0.73574000       0.42233000
   180  C          0.29203000       0.26426000       0.57767000
   181  I         -0.00488400       0.89538200       0.70034200
   182  I          0.00488400       0.10461800       0.29965800
   183  I          0.91368500       0.31589200       0.63973200
   184  I          0.08631500       0.68410800       0.36026800
   185  I          0.01938500       0.69880300       0.69751200
   186  I         -0.01938500       0.30119700       0.30248800
   187  S          0.91228820       0.50556100       0.64202900
   188  S          0.08771180       0.49443900       0.35797100
   189  C          0.00647000       0.43604000       0.67524000
   190  C         -0.00647000       0.56396000       0.32476000
   191  C          0.13298000       0.47104000       0.72724000
   192  C          0.86702000       0.52896000       0.27276000
   193  H          0.19967000       0.44226800       0.75159300
   194  H          0.80033000       0.55773200       0.24840700
   195  C          0.15518000       0.55474000       0.74124000
   196  C          0.84482000       0.44526000       0.25876000
   197  H          0.23833600       0.58792400       0.77549900
   198  H          0.76166400       0.41207600       0.22450100
   199  C          0.04337000       0.58214000       0.69984000
   200  C          0.95663000       0.41786000       0.30016000
   201  I          0.73377400       0.88877200       0.94806200
   202  I          0.26622600       0.11122800       0.05193800
   203  I          0.76796600       0.11498200       0.55569200
   204  I          0.23203400       0.88501800       0.44430800
   205  I          0.49027400       0.09708200       0.79810200
   206  I          0.50972600       0.90291800       0.20189800
   207  N          0.26345000       0.87833000       0.92713000
   208  N          0.73655000       0.12167000       0.07287000
   209  C          0.32567000       0.94334000       0.89153000
   210  C          0.67433000       0.05666000       0.10847000
   211  H          0.31583900      -0.00584200       0.91461600
   212  H          0.68416100       0.00584200       0.08538400
   213  H          0.27076400       0.93417600       0.84101800
   214  H          0.72923600       0.06582400       0.15898200
   215  H          0.43098100       0.94407000       0.89547700
   216  H          0.56901900       0.05593000       0.10452300
   217  C          0.10396000       0.88024000       0.92314000
   218  C          0.89604000       0.11976000       0.07686000
   219  H          0.06057700       0.83649300       0.94462100
   220  H          0.93942300       0.16350700       0.05537900
   221  H          0.04798300       0.87460400       0.87305300
   222  H          0.95201700       0.12539600       0.12694700
   223  H          0.09886800       0.93066100       0.94898700
   224  H          0.90113200       0.06933900       0.05101300
   225  C          0.34916000       0.89184000       0.00443000
   226  C          0.65084000       0.10816000      -0.00443000
   227  H          0.45389600       0.89145200       0.00773700
   228  H          0.54610400       0.10854800       0.99226300
   229  H          0.30756500       0.84959500       0.02795100
   230  H          0.69243500       0.15040500       0.97204900
   231  H          0.34171000       0.94309700       0.02772800
   232  H          0.65829000       0.05690300       0.97227200
   233  C          0.27587000       0.79994000       0.88863000
   234  C          0.72413000       0.20006000       0.11137000
   235  H          0.21296500       0.79145300       0.83894800
   236  H          0.78703500       0.20854700       0.16105200
   237  H          0.38018100       0.80362300       0.88654200
   238  H          0.61981900       0.19637700       0.11345800
   239  C          0.23037000       0.72914000       0.92233000
   240  C          0.76963000       0.27086000       0.07767000
   241  C          0.08117000       0.68914000       0.90703000
   242  C          0.91883000       0.31086000       0.09297000
   243  H          0.00694500       0.70598500       0.87371200
   244  H         -0.00694500       0.29401500       0.12628800
   245  C          0.04128000       0.62524000       0.93994000
   246  C          0.95872000       0.37476000       0.06006000
   247  H          0.93977800       0.59853900       0.92936100
   248  H          0.06022200       0.40146100       0.07063900
   249  C          0.14898000       0.59994000       0.98844000
   250  C          0.85102000       0.40006000       0.01156000
   251  H          0.12110100       0.55734400       0.01249000
   252  H          0.87889900       0.44265600       0.98751000
   253  C          0.29798000       0.63734000       0.00154000
   254  C          0.70202000       0.36266000      -0.00154000
   255  H          0.37237300       0.61809300       0.03246200
   256  H          0.62762700       0.38190700       0.96753800
   257  C          0.33827000       0.70214000       0.96984000
   258  C          0.66173000       0.29786000       0.03016000
   259  H          0.43987300       0.72833500       0.98042800
   260  H          0.56012700       0.27166500       0.01957200
