data_VARNUB
_symmetry_space_group_name_H-M    'P1'
_symmetry_Int_Tables_number       1
loop_
_symmetry_equiv_pos_site_id
_symmetry_equiv_pos_as_xyz
1 x,y,z
_cell_length_a                   13.84527
_cell_length_b                   13.53017
_cell_length_c                   19.72169
_cell_angle_alpha                90.0
_cell_angle_beta                 91.3632
_cell_angle_gamma                90.0
loop_
_atom_site_label
_atom_site_type_symbol
_atom_site_fract_x
_atom_site_fract_y
_atom_site_fract_z
     1  I          0.35744200       0.50490200       0.33233200
     2  I          0.14255800       0.50490200       0.16766800
     3  I          0.64255800       0.49509800       0.66766800
     4  I          0.85744200       0.49509800       0.83233200
     5  I          0.36208200       0.98570200       0.33672200
     6  I          0.13791800       0.98570200       0.16327800
     7  I          0.63791800       0.01429800       0.66327800
     8  I          0.86208200       0.01429800       0.83672200
     9  S          0.34601700       0.74514600       0.36712400
    10  S          0.15398300       0.74514600       0.13287600
    11  S          0.65398300       0.25485400       0.63287600
    12  S          0.84601700       0.25485400       0.86712400
    13  C          0.36442000       0.65432000       0.30738170
    14  C          0.13558000       0.65432000       0.19261830
    15  C          0.63558000       0.34568000       0.69261830
    16  C          0.86442000       0.34568000       0.80738170
    17  C          0.38603000       0.69373000       0.24622180
    18  C          0.11397000       0.69373000       0.25377820
    19  C          0.61397000       0.30627000       0.75377820
    20  C          0.88603000       0.30627000       0.74622180
    21  H          0.39870900       0.65511400       0.20718100
    22  H          0.10129100       0.65511400       0.29281900
    23  H          0.60129100       0.34488600       0.79281900
    24  H          0.89870900       0.34488600       0.70718100
    25  C          0.38743000       0.79883000       0.24688180
    26  C          0.11257000       0.79883000       0.25311820
    27  C          0.61257000       0.20117000       0.75311820
    28  C          0.88743000       0.20117000       0.74688180
    29  H          0.40079400       0.83798300       0.20826700
    30  H          0.09920600       0.83798300       0.29173300
    31  H          0.59920600       0.16201700       0.79173300
    32  H          0.90079400       0.16201700       0.70826700
    33  C          0.36762000       0.83712000       0.30881170
    34  C          0.13238000       0.83712000       0.19118830
    35  C          0.63238000       0.16288000       0.69118830
    36  C          0.86762000       0.16288000       0.80881170
    37  I          0.37926200       0.24652200       0.36995200
    38  I          0.12073800       0.24652200       0.13004800
    39  I          0.62073800       0.75347800       0.63004800
    40  I          0.87926200       0.75347800       0.86995200
    41  I          0.86101200       0.76513800       0.33232200
    42  I          0.63898800       0.76513800       0.16767800
    43  I          0.13898800       0.23486200       0.66767800
    44  I          0.36101200       0.23486200       0.83232200
    45  I          0.85670200       0.24540200       0.33970200
    46  I          0.64329800       0.24540200       0.16029800
    47  I          0.14329800       0.75459800       0.66029800
    48  I          0.35670200       0.75459800       0.83970200
    49  S          0.84610700       0.00392600       0.36880400
    50  S          0.65389300       0.00392600       0.13119600
    51  S          0.15389300      -0.00392600       0.63119600
    52  S          0.34610700      -0.00392600       0.86880400
    53  C          0.86642000       0.91498000       0.30776170
    54  C          0.63358000       0.91498000       0.19223830
    55  C          0.13358000       0.08502000       0.69223830
    56  C          0.36642000       0.08502000       0.80776170
    57  C          0.88503000       0.95567000       0.24672180
    58  C          0.61497000       0.95567000       0.25327820
    59  C          0.11497000       0.04433000       0.75327820
    60  C          0.38503000       0.04433000       0.74672180
    61  H          0.89763400       0.91830300       0.20714000
    62  H          0.60236600       0.91830300       0.29286000
    63  H          0.10236600       0.08169700       0.79286000
    64  H          0.39763400       0.08169700       0.70714000
    65  C          0.88363000       0.06173000       0.24850180
    66  C          0.61637000       0.06173000       0.25149820
    67  C          0.11637000       0.93827000       0.75149820
    68  C          0.38363000       0.93827000       0.74850180
    69  H          0.89559500       0.10242900       0.21034200
    70  H          0.60440500       0.10242900       0.28965800
    71  H          0.10440500       0.89757100       0.78965800
    72  H          0.39559500       0.89757100       0.71034200
    73  C          0.86332000       0.09742000       0.31114180
    74  C          0.63668000       0.09742000       0.18885820
    75  C          0.13668000       0.90258000       0.68885820
    76  C          0.36332000       0.90258000       0.81114180
    77  I          0.87564200       0.50603200       0.36811200
    78  I          0.62435800       0.50603200       0.13188800
    79  I          0.12435800       0.49396800       0.63188800
    80  I          0.37564200       0.49396800       0.86811200
    81  Cl         0.63064700       0.38176700       0.46836400
    82  Cl         0.86935300       0.38176700       0.03163600
    83  Cl         0.36935300       0.61823300       0.53163600
    84  Cl         0.13064700       0.61823300       0.96836400
    85  N          0.61452000       0.49962000       0.36227140
    86  N          0.88548000       0.49962000       0.13772860
    87  N          0.38548000       0.50038000       0.63772860
    88  N          0.11452000       0.50038000       0.86227140
    89  C          0.62092000       0.49592000       0.43043180
    90  C          0.87908000       0.49592000       0.06956820
    91  C          0.37908000       0.50408000       0.56956820
    92  C          0.12092000       0.50408000       0.93043180
    93  C          0.61833000       0.58053000       0.46909180
    94  C          0.88167000       0.58053000       0.03090820
    95  C          0.38167000       0.41947000       0.53090820
    96  C          0.11833000       0.41947000       0.96909180
    97  H          0.62170700       0.57686000       0.51719900
    98  H          0.87829300       0.57686000       0.98280100
    99  H          0.37829300       0.42314000       0.48280100
   100  H          0.12170700       0.42314000       0.01719900
   101  C          0.61073000       0.67123000       0.43646190
   102  C          0.88927000       0.67123000       0.06353810
   103  C          0.38927000       0.32877000       0.56353810
   104  C          0.11073000       0.32877000       0.93646190
   105  H          0.60927700       0.73065600       0.46205800
   106  H          0.89072300       0.73065600       0.03794200
   107  H          0.39072300       0.26934400       0.53794200
   108  H          0.10927700       0.26934400       0.96205800
   109  C          0.60513000       0.67423000       0.36662180
   110  C          0.89487000       0.67423000       0.13337820
   111  C          0.39487000       0.32577000       0.63337820
   112  C          0.10513000       0.32577000       0.86662180
   113  H          0.59946400       0.73577600       0.34368700
   114  H          0.90053600       0.73577600       0.15631300
   115  H          0.40053600       0.26422400       0.65631300
   116  H          0.09946400       0.26422400       0.84368700
   117  C          0.60792000       0.58753000       0.33042170
   118  C          0.89208000       0.58753000       0.16957830
   119  C          0.39208000       0.41247000       0.66957830
   120  C          0.10792000       0.41247000       0.83042170
   121  H          0.60511800       0.58963300       0.28226600
   122  H          0.89488200       0.58963300       0.21773400
   123  H          0.39488200       0.41036700       0.71773400
   124  H          0.10511800       0.41036700       0.78226600
   125  C          0.61613000       0.40823000       0.32065180
   126  C          0.88387000       0.40823000       0.17934820
   127  C          0.38387000       0.59177000       0.67934820
   128  C          0.11613000       0.59177000       0.82065180
   129  H          0.60483400       0.42508900       0.27279500
   130  H          0.89516600       0.42508900       0.22720500
   131  H          0.39516600       0.57491100       0.72720500
   132  H          0.10483400       0.57491100       0.77279500
   133  H          0.56526500       0.36312800       0.33543100
   134  H          0.93473500       0.36312800       0.16456900
   135  H          0.43473500       0.63687200       0.66456900
   136  H          0.06526500       0.63687200       0.83543100
   137  H          0.67912200       0.37590100       0.32626300
   138  H          0.82087800       0.37590100       0.17373700
   139  H          0.32087800       0.62409900       0.67373700
   140  H          0.17912200       0.62409900       0.82626300
   141  Cl         0.12824700       0.35229600       0.47811400
   142  Cl         0.37175300       0.35229600       0.02188600
   143  Cl         0.87175300       0.64770400       0.52188600
   144  Cl         0.62824700       0.64770400       0.97811400
   145  N          0.11512000       0.24402000       0.36260150
   146  N          0.38488000       0.24402000       0.13739850
   147  N          0.88488000       0.75598000       0.63739850
   148  N          0.61512000       0.75598000       0.86260150
   149  C          0.11943000       0.24153000       0.43097190
   150  C          0.38057000       0.24153000       0.06902810
   151  C          0.88057000       0.75847000       0.56902810
   152  C          0.61943000       0.75847000       0.93097190
   153  C          0.11583000       0.15313000       0.46462000
   154  C          0.38417000       0.15313000       0.03538000
   155  C          0.88417000       0.84687000       0.53538000
   156  C          0.61583000       0.84687000       0.96462000
   157  H          0.11739700       0.15383700       0.51281400
   158  H          0.38260300       0.15383700       0.98718600
   159  H          0.88260300       0.84616300       0.48718600
   160  H          0.61739700       0.84616300       0.01281400
   161  C          0.10993000       0.06483000       0.43272000
   162  C          0.39007000       0.06483000       0.06728000
   163  C          0.89007000       0.93517000       0.56728000
   164  C          0.60993000       0.93517000       0.93272000
   165  H          0.10945000       0.00394700       0.45670200
   166  H          0.39055000       0.00394700       0.04329800
   167  H          0.89055000      -0.00394700       0.54329800
   168  H          0.60945000      -0.00394700       0.95670200
   169  C          0.10453000       0.06923000       0.35922000
   170  C          0.39547000       0.06923000       0.14078000
   171  C          0.89547000       0.93077000       0.64078000
   172  C          0.60453000       0.93077000       0.85922000
   173  H          0.09819400       0.01012600       0.33352700
   174  H          0.40180600       0.01012600       0.16647300
   175  H          0.90180600      -0.01012600       0.66647300
   176  H          0.59819400      -0.01012600       0.83352700
   177  C          0.10853000       0.15883000       0.32692190
   178  C          0.39147000       0.15883000       0.17307810
   179  C          0.89147000       0.84117000       0.67307810
   180  C          0.60853000       0.84117000       0.82692190
   181  H          0.10660200       0.16103500       0.27876200
   182  H          0.39339800       0.16103500       0.22123800
   183  H          0.89339800       0.83896500       0.72123800
   184  H          0.60660200       0.83896500       0.77876200
   185  C          0.11733000       0.33923000       0.32490190
   186  C          0.38267000       0.33923000       0.17509810
   187  C          0.88267000       0.66077000       0.67509810
   188  C          0.61733000       0.66077000       0.82490190
   189  H          0.11394300       0.32608200       0.27603000
   190  H          0.38605700       0.32608200       0.22397000
   191  H          0.88605700       0.67391800       0.72397000
   192  H          0.61394300       0.67391800       0.77603000
   193  H          0.17734800       0.37442400       0.33628800
   194  H          0.32265200       0.37442400       0.16371200
   195  H          0.82265200       0.62557600       0.66371200
   196  H          0.67734800       0.62557600       0.83628800
   197  H          0.06193900       0.37982600       0.33755600
   198  H          0.43806100       0.37982600       0.16244400
   199  H          0.93806100       0.62017400       0.66244400
   200  H          0.56193900       0.62017400       0.83755600
   201  N          0.60463000       0.91503000       0.43372000
   202  N          0.89537000       0.91503000       0.06628000
   203  N          0.39537000       0.08497000       0.56628000
   204  N          0.10463000       0.08497000       0.93372000
   205  C          0.60913000      -0.00317000       0.44632000
   206  C          0.89087000      -0.00317000       0.05368000
   207  C          0.39087000       0.00317000       0.55368000
   208  C          0.10913000       0.00317000       0.94632000
   209  C          0.61423000       0.10163000       0.46162000
   210  C          0.88577000       0.10163000       0.03838000
   211  C          0.38577000       0.89837000       0.53838000
   212  C          0.11423000       0.89837000       0.96162000
   213  H          0.67769400       0.12720600       0.44950100
   214  H          0.82230600       0.12720600       0.05049900
   215  H          0.32230600       0.87279400       0.55049900
   216  H          0.17769400       0.87279400       0.94950100
   217  H          0.60454300       0.11172900       0.51021600
   218  H          0.89545700       0.11172900       0.98978400
   219  H          0.39545700       0.88827100       0.48978400
   220  H          0.10454300       0.88827100       0.01021600
   221  H          0.56372900       0.13672600       0.43557400
   222  H          0.93627100       0.13672600       0.06442600
   223  H          0.43627100       0.86327400       0.56442600
   224  H          0.06372900       0.86327400       0.93557400
   225  N          0.11104000       0.82407000       0.45173000
   226  N          0.38896000       0.82407000       0.04827000
   227  N          0.88896000       0.17593000       0.54827000
   228  N          0.61104000       0.17593000       0.95173000
   229  C          0.11373000       0.74027000       0.45062000
   230  C          0.38627000       0.74027000       0.04938000
   231  C          0.88627000       0.25973000       0.54938000
   232  C          0.61373000       0.25973000       0.95062000
   233  C          0.11733000       0.63337000       0.44912000
   234  C          0.38267000       0.63337000       0.05088000
   235  C          0.88267000       0.36663000       0.55088000
   236  C          0.61733000       0.36663000       0.94912000
   237  H          0.05806900       0.60781700       0.42734500
   238  H          0.44193100       0.60781700       0.07265500
   239  H          0.94193100       0.39218300       0.57265500
   240  H          0.55806900       0.39218300       0.92734500
   241  H          0.12296600       0.60806200       0.49558700
   242  H          0.37703400       0.60806200       0.00441300
   243  H          0.87703400       0.39193800       0.50441300
   244  H          0.62296600       0.39193800      -0.00441300
   245  H          0.17331400       0.61207700       0.42343100
   246  H          0.32668600       0.61207700       0.07656900
   247  H          0.82668600       0.38792300       0.57656900
   248  H          0.67331400       0.38792300       0.92343100
