data_VATLUZ
_symmetry_space_group_name_H-M    'P1'
_symmetry_Int_Tables_number       1
loop_
_symmetry_equiv_pos_site_id
_symmetry_equiv_pos_as_xyz
1 x,y,z
_cell_length_a                   9.878718
_cell_length_b                   12.1162
_cell_length_c                   14.0663
_cell_angle_alpha                105.8372
_cell_angle_beta                 98.3352
_cell_angle_gamma                99.8822
loop_
_atom_site_label
_atom_site_type_symbol
_atom_site_fract_x
_atom_site_fract_y
_atom_site_fract_z
     1  Br         0.73318500       0.22400400       0.27547300
     2  Br         0.26681500       0.77599600       0.72452700
     3  C          0.66673000       0.51463000       0.19112000
     4  C          0.33327000       0.48537000       0.80888000
     5  H          0.59040000       0.53610000       0.15970000
     6  H          0.40960000       0.46390000       0.84030000
     7  C          0.64833000       0.40623000       0.20832000
     8  C          0.35167000       0.59377000       0.79168000
     9  H          0.56000000       0.35590000       0.18940000
    10  H          0.44000000       0.64410000       0.81060000
    11  C          0.76133000       0.37343000       0.25332000
    12  C          0.23867000       0.62657000       0.74668000
    13  C          0.89303000       0.44863000       0.28392000
    14  C          0.10697000       0.55137000       0.71608000
    15  H          0.96900000       0.42650000       0.31510000
    16  H          0.03100000       0.57350000       0.68490000
    17  C          0.90953000       0.55693000       0.26702000
    18  C          0.09047000       0.44307000       0.73298000
    19  H         -0.00240000       0.60770000       0.28750000
    20  H          0.00240000       0.39230000       0.71250000
    21  C          0.79773000       0.59203000       0.22033190
    22  C          0.20227000       0.40797000       0.77966810
    23  C          0.82043000       0.71082000       0.20052000
    24  C          0.17957000       0.28918000       0.79948000
    25  H          0.91780000       0.73240000       0.19330000
    26  H          0.08220000       0.26760000       0.80670000
    27  C          0.72393000       0.71102000       0.10642000
    28  C          0.27607000       0.28898000       0.89358000
    29  C          0.73993000       0.65432000       0.00642000
    30  C          0.26007000       0.34568000      -0.00642000
    31  C          0.87353000       0.53873000       0.90758000
    32  C          0.12647000       0.46127000       0.09242000
    33  H          0.97110000       0.53380000       0.91250000
    34  H          0.02890000       0.46620000       0.08750000
    35  H          0.85190000       0.58020000       0.85930000
    36  H          0.14810000       0.41980000       0.14070000
    37  C          0.78224000       0.41703000       0.87087000
    38  C          0.21776000       0.58297000       0.12913000
    39  H          0.80310000       0.37600000       0.91870000
    40  H          0.19690000       0.62400000       0.08130000
    41  H          0.79980000       0.37550000       0.80690000
    42  H          0.20020000       0.62450000       0.19310000
    43  H          0.68540000       0.42170000       0.86350000
    44  H          0.31460000       0.57830000       0.13650000
    45  C          0.61263000       0.76042000       0.12422000
    46  C          0.38737000       0.23958000       0.87578000
    47  C          0.79403000       0.80873000       0.28862000
    48  C          0.20597000       0.19127000       0.71138000
    49  H          0.80680000       0.78750000       0.35120000
    50  H          0.19320000       0.21250000       0.64880000
    51  C          0.88973000       0.92893000       0.30342000
    52  C          0.11027000       0.07107000       0.69658000
    53  C          0.97073000       0.12863000       0.43132000
    54  C          0.02927000       0.87137000       0.56868000
    55  C          0.13713000       0.27463000       0.38672000
    56  C          0.86287000       0.72537000       0.61328000
    57  C          0.15074000       0.37143000       0.46952000
    58  C          0.84926000       0.62857000       0.53048000
    59  H          0.10100000       0.36590000       0.51990000
    60  H          0.89900000       0.63410000       0.48010000
    61  C          0.23965000       0.47803000       0.47713000
    62  C          0.76035000       0.52197000       0.52287000
    63  H          0.24570000       0.54320000       0.53230000
    64  H          0.75430000       0.45680000       0.46770000
    65  C          0.31824000       0.49013000       0.40593000
    66  C          0.68176000       0.50987000       0.59407000
    67  C          0.41786000       0.60514000       0.41724000
    68  C          0.58214000       0.39486000       0.58276000
    69  H          0.39180000       0.66850000       0.46350000
    70  H          0.60820000       0.33150000       0.53650000
    71  H          0.41280000       0.61850000       0.35270000
    72  H          0.58720000       0.38150000       0.64730000
    73  H          0.51190000       0.60130000       0.44270000
    74  H          0.48810000       0.39870000       0.55730000
    75  C          0.30184000       0.39263000       0.32293000
    76  C          0.69816000       0.60737000       0.67707000
    77  H          0.35110000       0.39850000       0.27230000
    78  H          0.64890000       0.60150000       0.72770000
    79  C          0.21404000       0.28663000       0.31312000
    80  C          0.78596000       0.71337000       0.68688000
    81  H          0.20620000       0.22240000       0.25670000
    82  H          0.79380000       0.77760000       0.74330000
    83  N          0.50353000       0.76362000       0.05652000
    84  N          0.49647000       0.23638000       0.94348000
    85  H          0.49860000       0.73170000      -0.00690000
    86  H          0.50140000       0.26830000       0.00690000
    87  H          0.43850000       0.79750000       0.07660000
    88  H          0.56150000       0.20250000       0.92340000
    89  N          0.89263000       0.01082000       0.39221170
    90  N          0.10737000      -0.01082000       0.60778830
    91  H          0.83970000      -0.01210000       0.42980000
    92  H          0.16030000       0.01210000       0.57020000
    93  N          0.04863000       0.16412000       0.36977180
    94  N          0.95137000       0.83588000       0.63022820
    95  H          0.04360000       0.11270000       0.31270000
    96  H          0.95640000       0.88730000       0.68730000
    97  O          0.85282000       0.60435170       0.00568140
    98  O          0.14718000       0.39564830      -0.00568140
    99  O          0.66262000       0.65042000       0.92781850
   100  O          0.33738000       0.34958000       0.07218150
   101  O          0.95582000       0.94662000       0.23944170
   102  O          0.04418000       0.05338000       0.76055830
   103  O          0.96183000       0.18656190       0.51489160
   104  O          0.03817000       0.81343810       0.48510840
   105  S          0.61226800       0.82123700       0.25287600
   106  S          0.38773200       0.17876300       0.74712400
   107  C          0.30594000       0.86973000       0.36113000
   108  C          0.69406000       0.13027000       0.63887000
   109  H          0.39480000       0.86370000       0.39490000
   110  H          0.60520000       0.13630000       0.60510000
   111  H          0.29790000       0.83940000       0.28940000
   112  H          0.70210000       0.16060000       0.71060000
   113  H          0.23150000       0.82500000       0.38120000
   114  H          0.76850000       0.17500000       0.61880000
   115  C          0.45454000       0.07873000       0.36573000
   116  C          0.54546000       0.92127000       0.63427000
   117  H          0.46910000       0.16290000       0.38430000
   118  H          0.53090000       0.83710000       0.61570000
   119  H          0.45140000       0.04780000       0.29470000
   120  H          0.54860000       0.95220000       0.70530000
   121  H          0.53010000       0.05760000       0.40280000
   122  H          0.46990000       0.94240000       0.59720000
   123  O          0.31373000       0.06212000       0.50735170
   124  O          0.68627000       0.93788000       0.49264830
   125  S          0.29410900       0.01976800       0.39370600
   126  S          0.70589100       0.98023200       0.60629400
   127  C          0.28197000       0.01746000      -0.00995000
   128  C          0.71803000       0.98254000       0.00995000
   129  H          0.36110000       0.07970000       0.02780000
   130  H          0.63890000       0.92030000       0.97220000
   131  H          0.21620000       0.04800000       0.95300000
   132  H          0.78380000       0.95200000       0.04700000
   133  H          0.31290000       0.95720000       0.94410000
   134  H          0.68710000       0.04280000       0.05590000
   135  C          0.07885000       0.83995000       0.98395000
   136  C          0.92115000       0.16005000       0.01605000
   137  H          0.12760000       0.78940000       0.94350000
   138  H          0.87240000       0.21060000       0.05650000
   139  H          0.01920000       0.86970000       0.94150000
   140  H         -0.01920000       0.13030000       0.05850000
   141  H          0.02270000       0.79620000       0.01760000
   142  H          0.97730000       0.20380000       0.98240000
   143  O          0.30383000       0.90333000       0.12252000
   144  O          0.69617000       0.09667000       0.87748000
   145  S          0.20037100       0.95741800       0.07372800
   146  S          0.79962900       0.04258200       0.92627200
