data_VAVWIY
_symmetry_space_group_name_H-M    'P1'
_symmetry_Int_Tables_number       1
loop_
_symmetry_equiv_pos_site_id
_symmetry_equiv_pos_as_xyz
1 x,y,z
_cell_length_a                   8.8951
_cell_length_b                   12.0672
_cell_length_c                   12.5892
_cell_angle_alpha                64.8
_cell_angle_beta                 85.52
_cell_angle_gamma                70.21
loop_
_atom_site_label
_atom_site_type_symbol
_atom_site_fract_x
_atom_site_fract_y
_atom_site_fract_z
     1  P          0.32981000       0.87351000       0.81421000
     2  P          0.67019000       0.12649000       0.18579000
     3  C          0.52633000       0.85432000       0.75772000
     4  C          0.47367000       0.14568000       0.24228000
     5  C          0.55573000       0.95032000       0.65672000
     6  C          0.44427000       0.04968000       0.34328000
     7  C          0.70693000       0.92862000       0.61432000
     8  C          0.29307000       0.07138000       0.38568000
     9  C          0.82963000       0.81242000       0.67382000
    10  C          0.17037000       0.18758000       0.32618000
    11  C          0.80103000       0.71672000       0.77492000
    12  C          0.19897000       0.28328000       0.22508000
    13  C          0.64973000       0.73562000       0.81572000
    14  C          0.35027000       0.26438000       0.18428000
    15  C          0.34173000       0.88032000       0.95442000
    16  C          0.65827000       0.11968000       0.04558000
    17  C          0.46483000       0.78722000       0.04012000
    18  C          0.53517000       0.21278000       0.95988000
    19  C          0.46663000       0.78673000       0.14972000
    20  C          0.53337000       0.21327000       0.85028000
    21  C          0.34853000       0.87803000       0.17642000
    22  C          0.65147000       0.12197000       0.82358000
    23  C          0.22653000       0.97113000       0.09102000
    24  C          0.77347000       0.02887000       0.90898000
    25  C          0.22233000       0.97222000       0.98092000
    26  C          0.77767000       0.02778000       0.01908000
    27  C          0.18892000       0.02772000       0.71622000
    28  C          0.81108000       0.97228000       0.28378000
    29  C          0.05753000       0.02762000       0.66412000
    30  C          0.94247000       0.97238000       0.33588000
    31  C          0.94327000       0.14492000       0.59162000
    32  C          0.05673000       0.85508000       0.40838000
    33  C          0.96107000       0.26172000       0.57202000
    34  C          0.03893000       0.73828000       0.42798000
    35  C          0.09313000       0.26162000       0.62352000
    36  C          0.90687000       0.73838000       0.37648000
    37  C          0.20723000       0.14582000       0.69522000
    38  C          0.79277000       0.85418000       0.30478000
    39  C          0.20983000       0.66762000       0.93842000
    40  C          0.79017000       0.33238000       0.06158000
    41  C          0.27583000       0.73942000       0.83262000
    42  C          0.72417000       0.26058000       0.16738000
    43  C          0.30422000       0.70482000       0.73672000
    44  C          0.69578000       0.29518000       0.26328000
    45  C          0.28293000       0.58332000       0.74352000
    46  C          0.71707000       0.41668000       0.25648000
    47  C          0.07753000       0.67913000       0.10742000
    48  C          0.92247000       0.32087000       0.89258000
    49  C          0.91707000       0.66713000       0.10063000
    50  C          0.08293000       0.33287000       0.89937000
    51  O          0.22042000       0.55432000       0.97652000
    52  O          0.77958000       0.44568000       0.02348000
    53  O          0.34622000       0.77781000       0.64141000
    54  O          0.65378000       0.22219000       0.35859000
    55  O          0.12582000       0.74452000      -0.00919000
    56  O          0.87418000       0.25548000       0.00919000
    57  H          0.47150000       0.03170000       0.61620000
    58  H          0.52850000       0.96830000       0.38380000
    59  H          0.72630000      -0.00550000       0.54350000
    60  H          0.27370000       0.00550000       0.45650000
    61  H          0.93430000       0.79820000       0.64490000
    62  H          0.06570000       0.20180000       0.35510000
    63  H          0.88670000       0.63680000       0.81690000
    64  H          0.11330000       0.36320000       0.18310000
    65  H          0.62930000       0.66740000       0.88390000
    66  H          0.37070000       0.33260000       0.11610000
    67  H          0.54830000       0.72350000       0.02280000
    68  H          0.45170000       0.27650000       0.97720000
    69  H          0.55120000       0.72180000       0.20840000
    70  H          0.44880000       0.27820000       0.79160000
    71  H          0.35090000       0.87710000       0.25290000
    72  H          0.64910000       0.12290000       0.74710000
    73  H          0.14420000       0.03540000       0.10850000
    74  H          0.85580000       0.96460000       0.89150000
    75  H          0.13670000       0.03650000       0.92270000
    76  H          0.86330000       0.96350000       0.07730000
    77  H          0.04510000       0.94660000       0.67790000
    78  H          0.95490000       0.05340000       0.32210000
    79  H          0.85240000       0.14490000       0.55530000
    80  H          0.14760000       0.85510000       0.44470000
    81  H          0.88180000       0.34260000       0.52270000
    82  H          0.11820000       0.65740000       0.47730000
    83  H          0.10530000       0.34270000       0.60920000
    84  H          0.89470000       0.65730000       0.39080000
    85  H          0.29870000       0.14640000       0.73050000
    86  H          0.70130000       0.85360000       0.26950000
    87  H          0.25130000       0.53750000       0.82000000
    88  H          0.74870000       0.46250000       0.18000000
    89  H          0.38220000       0.52840000       0.73030000
    90  H          0.61780000       0.47160000       0.26970000
    91  H          0.20160000       0.60650000       0.68450000
    92  H          0.79840000       0.39350000       0.31550000
    93  H          0.15530000       0.59370000       0.14640000
    94  H          0.84470000       0.40630000       0.85360000
    95  H          0.07220000       0.72830000       0.15170000
    96  H          0.92780000       0.27170000       0.84830000
    97  H          0.90260000       0.58830000       0.10980000
    98  H          0.09740000       0.41170000       0.89020000
    99  H          0.81950000       0.72290000       0.11500000
   100  H          0.18050000       0.27710000       0.88500000
   101  C          0.59763000       0.61222000       0.49772000
   102  C          0.40237000       0.38778000       0.50228000
   103  C          0.66983000       0.54303000       0.62092000
   104  C          0.33017000       0.45697000       0.37908000
   105  O          0.65432000       0.57822000       0.42192000
   106  O          0.34568000       0.42178000       0.57808000
   107  O          0.46362000       0.71372000       0.47351000
   108  O          0.53638000       0.28628000       0.52649000
   109  H          0.42583800       0.72893000       0.53512900
   110  H          0.57416200       0.27107000       0.46487100
   111  H          0.76530000       0.47190000       0.62740000
   112  H          0.23470000       0.52810000       0.37260000
   113  H          0.59460000       0.51020000       0.67270000
   114  H          0.40540000       0.48980000       0.32730000
   115  H          0.69610000       0.60220000       0.64210000
   116  H          0.30390000       0.39780000       0.35790000
