data_VAXRAP
_symmetry_space_group_name_H-M    'P1'
_symmetry_Int_Tables_number       1
loop_
_symmetry_equiv_pos_site_id
_symmetry_equiv_pos_as_xyz
1 x,y,z
_cell_length_a                   16.39336
_cell_length_b                   4.89212
_cell_length_c                   16.53268
_cell_angle_alpha                90.0
_cell_angle_beta                 103.2092
_cell_angle_gamma                90.0
loop_
_atom_site_label
_atom_site_type_symbol
_atom_site_fract_x
_atom_site_fract_y
_atom_site_fract_z
     1  C          0.26928900       0.36404000       0.33104900
     2  C          0.23071100       0.86404000       0.16895100
     3  C          0.73071100       0.63596000       0.66895100
     4  C          0.76928900       0.13596000       0.83104900
     5  H          0.24240000       0.50470000       0.29500000
     6  H          0.25760000       0.00470000       0.20500000
     7  H          0.75760000       0.49530000       0.70500000
     8  H          0.74240000      -0.00470000       0.79500000
     9  C          0.22411900       0.21554000       0.37661900
    10  C          0.27588100       0.71554000       0.12338100
    11  C          0.77588100       0.78446000       0.62338100
    12  C          0.72411900       0.28446000       0.87661900
    13  H          0.16640000       0.25240000       0.37210000
    14  H          0.33360000       0.75240000       0.12790000
    15  H          0.83360000       0.74760000       0.62790000
    16  H          0.66640000       0.24760000       0.87210000
    17  C          0.26390900       0.01353000       0.42852900
    18  C          0.23609100       0.51353000       0.07147100
    19  C          0.73609100      -0.01353000       0.57147100
    20  C          0.76390900       0.48647000       0.92852900
    21  C          0.25038900       0.66894000       0.53074900
    22  C          0.24961100       0.16894000       0.96925100
    23  C          0.74961100       0.33106000       0.46925100
    24  C          0.75038900       0.83106000       0.03074900
    25  C          0.33940800       0.60293000       0.53907800
    26  C          0.16059200       0.10293000       0.96092200
    27  C          0.66059200       0.39707000       0.46092200
    28  C          0.83940800       0.89707000       0.03907800
    29  C          0.38397900       0.73923000       0.49276900
    30  C          0.11602100       0.23923000       0.00723100
    31  C          0.61602100       0.26077000       0.50723100
    32  C          0.88397900       0.76077000      -0.00723100
    33  H          0.44120000       0.69240000       0.49790000
    34  H          0.05880000       0.19240000       0.00210000
    35  H          0.55880000       0.30760000       0.50210000
    36  H          0.94120000       0.80760000      -0.00210000
    37  C          0.34836900       0.95123000       0.43629800
    38  C          0.15163100       0.45123000       0.06370200
    39  C          0.65163100       0.04877000       0.56370200
    40  C          0.84836900       0.54877000       0.93629800
    41  C          0.39286900       0.10373000       0.38848900
    42  C          0.10713100       0.60373000       0.11151100
    43  C          0.60713100       0.89627000       0.61151100
    44  C          0.89286900       0.39627000       0.88848900
    45  H          0.45020000       0.06380000       0.39160000
    46  H          0.04980000       0.56380000       0.10840000
    47  H          0.54980000       0.93620000       0.60840000
    48  H          0.95020000       0.43620000       0.89160000
    49  C          0.35432100       0.30964000       0.33736900
    50  C          0.14567900       0.80964000       0.16263100
    51  C          0.64567900       0.69036000       0.66263100
    52  C          0.85432100       0.19036000       0.83736900
    53  H          0.38520000       0.41480000       0.30640000
    54  H          0.11480000       0.91480000       0.19360000
    55  H          0.61480000       0.58520000       0.69360000
    56  H          0.88520000       0.08520000       0.80640000
    57  C          0.38181900       0.38554000       0.59759900
    58  C          0.11818100       0.88554000       0.90240100
    59  C          0.61818100       0.61446000       0.40240100
    60  C          0.88181900       0.11446000       0.09759900
    61  O          0.45777600       0.36183000       0.61362700
    62  O          0.04222400       0.86183000       0.88637300
    63  O          0.54222400       0.63817000       0.38637300
    64  O          0.95777600       0.13817000       0.11362700
    65  O          0.33176600       0.22943000       0.62800700
    66  O          0.16823400       0.72943000       0.87199300
    67  O          0.66823400       0.77057000       0.37199300
    68  O          0.83176600       0.27057000       0.12800700
    69  H          0.36010000       0.13000000       0.66550000
    70  H          0.13990000       0.63000000       0.83450000
    71  H          0.63990000       0.87000000       0.33450000
    72  H          0.86010000       0.37000000       0.16550000
    73  O          0.20228700       0.57083000       0.56743800
    74  O          0.29771300       0.07083000       0.93256200
    75  O          0.79771300       0.42917000       0.43256200
    76  O          0.70228700       0.92917000       0.06743800
    77  O          0.21702600       0.87042000       0.47363600
    78  O          0.28297400       0.37042000       0.02636400
    79  O          0.78297400       0.12958000       0.52636400
    80  O          0.71702600       0.62958000       0.97363600
    81  C          0.64582100       0.26004000       0.22395100
    82  C          0.85417900       0.76004000       0.27604900
    83  C          0.35417900       0.73996000       0.77604900
    84  C          0.14582100       0.23996000       0.72395100
    85  H          0.70390000       0.26710000       0.24970000
    86  H          0.79610000       0.76710000       0.25030000
    87  H          0.29610000       0.73290000       0.75030000
    88  H          0.20390000       0.23290000       0.74970000
    89  C          0.61622100       0.42184000       0.15542100
    90  C          0.88377900       0.92184000       0.34457900
    91  C          0.38377900       0.57816000       0.84457900
    92  C          0.11622100       0.07816000       0.65542100
    93  H          0.65360000       0.53710000       0.13500000
    94  H          0.84640000       0.03710000       0.36500000
    95  H          0.34640000       0.46290000       0.86500000
    96  H          0.15360000       0.96290000       0.63500000
    97  C          0.53232900       0.41663000       0.11638800
    98  C          0.96767100       0.91663000       0.38361200
    99  C          0.46767100       0.58337000       0.88361200
   100  C          0.03232900       0.08337000       0.61638800
   101  C          0.48161100       0.24374000       0.15024100
   102  C          0.01838900       0.74374000       0.34975900
   103  C          0.51838900       0.75626000       0.84975900
   104  C          0.98161100       0.25626000       0.65024100
   105  H          0.42330000       0.23330000       0.12600000
   106  H          0.07670000       0.73330000       0.37400000
   107  H          0.57670000       0.76670000       0.87400000
   108  H          0.92330000       0.26670000       0.62600000
   109  C          0.51574900       0.08804000       0.21862900
   110  C          0.98425100       0.58804000       0.28137100
   111  C          0.48425100       0.91196000       0.78137100
   112  C          0.01574900       0.41196000       0.71862900
   113  H          0.47990000       0.97060000       0.24050000
   114  H          0.02010000       0.47060000       0.25950000
   115  H          0.52010000       0.02940000       0.75950000
   116  H          0.97990000       0.52940000       0.74050000
   117  C          0.49875900       0.58234000       0.03930800
   118  C          0.00124100       0.08234000       0.46069200
   119  C          0.50124100       0.41766000       0.96069200
   120  C         -0.00124100       0.91766000       0.53930800
   121  H          0.53260000       0.75050000       0.04080000
   122  H          0.96740000       0.25050000       0.45920000
   123  H          0.46740000       0.24950000       0.95920000
   124  H          0.03260000       0.74950000       0.54080000
   125  H          0.44030000       0.63730000       0.03770000
   126  H          0.05970000       0.13730000       0.46230000
   127  H          0.55970000       0.36270000       0.96230000
   128  H          0.94030000       0.86270000       0.53770000
   129  N          0.59697800       0.09433000       0.25578700
   130  N          0.90302200       0.59433000       0.24421300
   131  N          0.40302200       0.90567000       0.74421300
   132  N          0.09697800       0.40567000       0.75578700
