data_VAZBOQ
_symmetry_space_group_name_H-M    'P1'
_symmetry_Int_Tables_number       1
loop_
_symmetry_equiv_pos_site_id
_symmetry_equiv_pos_as_xyz
1 x,y,z
_cell_length_a                   10.9143
_cell_length_b                   12.9433
_cell_length_c                   18.5414
_cell_angle_alpha                71.3636
_cell_angle_beta                 82.2298
_cell_angle_gamma                87.9439
loop_
_atom_site_label
_atom_site_type_symbol
_atom_site_fract_x
_atom_site_fract_y
_atom_site_fract_z
     1  C          0.44103000       0.71842000       0.08786160
     2  C          0.55897000       0.28158000       0.91213840
     3  C          0.48893000       0.74802000       0.01172160
     4  C          0.51107000       0.25198000       0.98827840
     5  C          0.36733000       0.71572000       0.22696160
     6  C          0.63267000       0.28428000       0.77303840
     7  C          0.36063000       0.61052000       0.22881160
     8  C          0.63937000       0.38948000       0.77118840
     9  C          0.58643000       0.85312000       0.87331850
    10  C          0.41357000       0.14688000       0.12668150
    11  C          0.57643000       0.74872000       0.87450850
    12  C          0.42357000       0.25128000       0.12549150
    13  C          0.33493000       0.64602000       0.38475160
    14  C          0.66507000       0.35398000       0.61524840
    15  H          0.42160000       0.62180000       0.38830000
    16  H          0.57840000       0.37820000       0.61170000
    17  H          0.30390000       0.66390000       0.43200000
    18  H          0.69610000       0.33610000       0.56800000
    19  C          0.25843000       0.55242000       0.38171170
    20  C          0.74157000       0.44758000       0.61828830
    21  H          0.17340000       0.57840000       0.37370000
    22  H          0.82660000       0.42160000       0.62630000
    23  H          0.25330000       0.49420000       0.43200000
    24  H          0.74670000       0.50580000       0.56800000
    25  C          0.70063000       0.90992000       0.72216830
    26  C          0.29937000       0.09008000       0.27783170
    27  H          0.70780000       0.96940000       0.67240000
    28  H          0.29220000       0.03060000       0.32760000
    29  H          0.78440000       0.88050000       0.73010000
    30  H          0.21560000       0.11950000       0.26990000
    31  C          0.61943000       0.82032000       0.71748840
    32  C          0.38057000       0.17968000       0.28251160
    33  H          0.64910000       0.80250000       0.67000000
    34  H          0.35090000       0.19750000       0.33000000
    35  H          0.53390000       0.84780000       0.71370000
    36  H          0.46610000       0.15220000       0.28630000
    37  S          0.41603700       0.81191600       0.13748400
    38  S          0.58396300       0.18808400       0.86251600
    39  S          0.40256700       0.58455600       0.14172400
    40  S          0.59743300       0.41544400       0.85827600
    41  S          0.52947700       0.88207600       0.95775600
    42  S          0.47052300       0.11792400       0.04224400
    43  S          0.51054700       0.65467600       0.96113600
    44  S          0.48945300       0.34532400       0.03886400
    45  S          0.33274700       0.76858600       0.30299400
    46  S          0.66725300       0.23141400       0.69700600
    47  S          0.31846700       0.49426600       0.30700400
    48  S          0.68153300       0.50573400       0.69299600
    49  S          0.64441800       0.96638600       0.79794600
    50  S          0.35558200       0.03361400       0.20205400
    51  S          0.61664700       0.69636600       0.79897600
    52  S          0.38335300       0.30363400       0.20102400
    53  C          0.76843000       0.55002000       0.09456160
    54  C          0.23157000       0.44998000       0.90543840
    55  C          0.81723000       0.58272000       0.01872160
    56  C          0.18277000       0.41728000       0.98127840
    57  C          0.69123000       0.54072000       0.23476150
    58  C          0.30877000       0.45928000       0.76523850
    59  C          0.67623000       0.43812000       0.23169150
    60  C          0.32377000       0.56188000       0.76830850
    61  C          0.92003000       0.69142000       0.88313850
    62  C          0.07997000       0.30858000       0.11686150
    63  C          0.91063000       0.58782000       0.88199850
    64  C          0.08937000       0.41218000       0.11800150
    65  C          0.62183000       0.46642000       0.39308160
    66  C          0.37817000       0.53358000       0.60691840
    67  H          0.64840000       0.47680000       0.43930000
    68  H          0.35160000       0.52320000       0.56070000
    69  H          0.53080000       0.45700000       0.40250000
    70  H          0.46920000       0.54300000       0.59750000
    71  C          0.67903000       0.36322000       0.38335160
    72  C          0.32097000       0.63678000       0.61664840
    73  H          0.66150000       0.30320000       0.43250000
    74  H          0.33850000       0.69680000       0.56750000
    75  H          0.76980000       0.37320000       0.37150000
    76  H          0.23020000       0.62680000       0.62850000
    77  C          0.03333000       0.75452000       0.73112840
    78  C          0.96667000       0.24548000       0.26887160
    79  H          0.03710000       0.81570000       0.68240000
    80  H          0.96290000       0.18430000       0.31760000
    81  H          0.11830000       0.72620000       0.73630000
    82  H          0.88170000       0.27380000       0.26370000
    83  C          0.95183000       0.66472000       0.72621840
    84  C          0.04817000       0.33528000       0.27378160
    85  H          0.97860000       0.64960000       0.67740000
    86  H          0.02140000       0.35040000       0.32260000
    87  H          0.86530000       0.69050000       0.72540000
    88  H          0.13470000       0.30950000       0.27460000
    89  S          0.75268700       0.63827600       0.14882400
    90  S          0.24731300       0.36172400       0.85117600
    91  S          0.72258700       0.41675500       0.14399400
    92  S          0.27741300       0.58324500       0.85600600
    93  S          0.86045700       0.71697500       0.96821600
    94  S          0.13954300       0.28302500       0.03178400
    95  S          0.83911700       0.49249600       0.96589600
    96  S          0.16088300       0.50750400       0.03410400
    97  S          0.65974700       0.58927500       0.31253400
    98  S          0.34025300       0.41072500       0.68746600
    99  S          0.62279700       0.32417600       0.30851400
   100  S          0.37720300       0.67582400       0.69148600
   101  S          0.98126700       0.80637600       0.81034600
   102  S          0.01873300       0.19362400       0.18965400
   103  S          0.95686800       0.53911600       0.80543600
   104  S          0.04313200       0.46088400       0.19456400
   105  C          0.83533000       0.08652000       0.00364160
   106  C          0.16467000       0.91348000      -0.00364160
   107  C          0.88293000       0.11972000       0.92761850
   108  C          0.11707000       0.88028000       0.07238150
   109  C          0.74853000       0.08022000       0.14124150
   110  C          0.25147000       0.91978000       0.85875850
   111  C          0.74493000       0.97538000       0.14170150
   112  C          0.25507000       0.02462000       0.85829850
   113  C          0.96143000       0.23522000       0.78823850
   114  C          0.03857000       0.76478000       0.21176150
   115  C          0.94972000       0.13152000       0.78627850
   116  C          0.05028000       0.86848000       0.21372150
   117  C          0.70513000       0.00882000       0.29748160
   118  C          0.29487000       0.99118000       0.70251840
   119  H          0.79230000       0.98650000       0.30130000
   120  H          0.20770000       0.01350000       0.69870000
   121  H          0.67190000       0.02500000       0.34510000
   122  H          0.32810000       0.97500000       0.65490000
   123  C          0.63223000       0.91498000       0.29197160
   124  C          0.36777000       0.08502000       0.70802840
   125  H          0.54720000       0.94010000       0.28300000
   126  H          0.45280000       0.05990000       0.71700000
   127  H          0.62630000       0.85600000       0.34190000
   128  H          0.37370000       0.14400000       0.65810000
   129  C          0.07803000       0.29382000       0.64069840
   130  C          0.92197000       0.70618000       0.35930160
   131  H          0.09700000       0.35340000       0.59150000
   132  H          0.90300000       0.64660000       0.40850000
   133  H          0.15700000       0.25860000       0.65520000
   134  H          0.84300000       0.74140000       0.34480000
   135  C         -0.00437000       0.21062000       0.62861850
   136  C          0.00437000       0.78938000       0.37138150
   137  H          0.03130000       0.19390000       0.58160000
   138  H          0.96870000       0.80610000       0.41840000
   139  H          0.91340000       0.24350000       0.61980000
   140  H          0.08660000       0.75650000       0.38020000
   141  S          0.81082700       0.17712600       0.05577400
   142  S          0.18917300       0.82287400       0.94422600
   143  S          0.79684700       0.95152500       0.05504400
   144  S          0.20315300       0.04847500       0.94495600
   145  S          0.92321700       0.25443600       0.87768600
   146  S          0.07678300       0.74556400       0.12231400
   147  S          0.90460700       0.03090600       0.87447600
   148  S          0.09539300       0.96909400       0.12552400
   149  S          0.70007700       0.13162600       0.21631400
   150  S          0.29992300       0.86837400       0.78368600
   151  S          0.69647800       0.85914400       0.21725400
   152  S          0.30352200       0.14085600       0.78274600
   153  S          0.01089700       0.35191600       0.71354600
   154  S          0.98910300       0.64808400       0.28645400
   155  S          0.97480700       0.08388500       0.70776600
   156  S          0.02519300       0.91611500       0.29223400
   157  C          0.15133000       0.00062000       0.50657840
   158  C          0.84867000      -0.00062000       0.49342160
   159  C          0.16493000       0.88732000       0.49548840
   160  C          0.83507000       0.11268000       0.50451160
   161  O          0.20652000       0.07588180       0.44662870
   162  O          0.79348000       0.92411820       0.55337130
   163  H          0.19440000       0.13540000       0.45070000
   164  H          0.80560000       0.86460000       0.54930000
   165  O          0.23482000       0.86937170       0.44463880
   166  O          0.76518000       0.13062830       0.55536120
   167  O          0.09582000       0.01405160       0.56362890
   168  O          0.90418000       0.98594840       0.43637110
   169  O          0.09032000       0.81646170       0.54878880
   170  O          0.90968000       0.18353830       0.45121120
   171  H          0.09140000       0.75240000       0.54170000
   172  H          0.90860000       0.24760000       0.45830000
   173  C          0.49583000       0.93748000       0.51089160
   174  C          0.50417000       0.06252000       0.48910840
   175  O          0.56172000       0.90460820       0.45808130
   176  O          0.43828000       0.09539180       0.54191870
   177  H          0.56740000       0.83160000       0.46820000
   178  H          0.43260000       0.16840000       0.53180000
   179  O          0.43652000       0.88166830       0.56820120
   180  O          0.56348000       0.11833170       0.43179880
   181  O          0.19463000       0.27512180       0.44150860
   182  O          0.80537000       0.72487820       0.55849140
   183  H          0.24540000       0.29130000       0.46380000
   184  H          0.75460000       0.70870000       0.53620000
   185  H          0.13750000       0.30840000       0.44570000
   186  H          0.86250000       0.69160000       0.55430000
   187  Cl         0.60798700       0.67717500       0.46940400
   188  Cl         0.39201300       0.32282500       0.53059600
   189  Cl         0.94759700       0.40485600       0.45245400
   190  Cl         0.05240300       0.59514400       0.54754600
