data_VAZLOA
_symmetry_space_group_name_H-M    'P1'
_symmetry_Int_Tables_number       1
loop_
_symmetry_equiv_pos_site_id
_symmetry_equiv_pos_as_xyz
1 x,y,z
_cell_length_a                   6.53873
_cell_length_b                   15.68546
_cell_length_c                   11.68724
_cell_angle_alpha                90.0
_cell_angle_beta                 99.6144
_cell_angle_gamma                90.0
loop_
_atom_site_label
_atom_site_type_symbol
_atom_site_fract_x
_atom_site_fract_y
_atom_site_fract_z
     1  C          0.09691100       0.26306000       0.94156000
     2  C          0.90308900       0.76306000       0.05844000
     3  C          0.02821100       0.30815000       0.02996000
     4  C          0.97178900       0.80815000       0.97004000
     5  C          0.84608800       0.35706000       0.00647000
     6  C          0.15391200       0.85706000      -0.00647000
     7  C          0.74048700       0.36066000       0.89408000
     8  C          0.25951300       0.86066000       0.10592000
     9  H          0.61850000       0.39210000       0.87810000
    10  H          0.38150000       0.89210000       0.12190000
    11  C          0.81078500       0.31926000       0.80598000
    12  C          0.18921500       0.81926000       0.19402000
    13  H          0.73940000       0.32450000       0.73050000
    14  H          0.26060000       0.82450000       0.26950000
    15  C         -0.01271300       0.26927000       0.82747000
    16  C          0.01271300       0.76927000       0.17253000
    17  H          0.03310000       0.24010000       0.76710000
    18  H          0.96690000       0.74010000       0.23290000
    19  C          0.70561600       0.96683000       0.31489000
    20  C          0.29438400       0.46683000       0.68511000
    21  H          0.81470000       0.92860000       0.33390000
    22  H          0.18530000       0.42860000       0.66610000
    23  C          0.55531800       0.97033000       0.37949000
    24  C          0.44468200       0.47033000       0.62051000
    25  H          0.56120000       0.93440000       0.44320000
    26  H          0.43880000       0.43440000       0.55680000
    27  C          0.38791500       0.02787000       0.35278000
    28  C          0.61208500       0.52787000       0.64722000
    29  H          0.28280000       0.02830000       0.39740000
    30  H          0.71720000       0.52830000       0.60260000
    31  C          0.59218500       0.43258000       0.09221100
    32  C          0.40781500       0.93258000       0.90778900
    33  H          0.57880000       0.47930000       0.03860000
    34  H          0.42120000       0.97930000       0.96140000
    35  H          0.57060000       0.45230000       0.16690000
    36  H          0.42940000       0.95230000       0.83310000
    37  H          0.49070000       0.38970000       0.06470000
    38  H          0.50930000       0.88970000       0.93530000
    39  O          0.12658000       0.30534000       0.14184000
    40  O          0.87342000       0.80534000       0.85816000
    41  H          0.22790000       0.27390000       0.14670000
    42  H          0.77210000       0.77390000       0.85330000
    43  O          0.79331000       0.39705000       0.10155000
    44  O          0.20669000       0.89705000       0.89845000
    45  C          0.27071200       0.20616000       0.96587000
    46  C          0.72928800       0.70616000       0.03413000
    47  H          0.31510000       0.17740000       0.90480000
    48  H          0.68490000       0.67740000       0.09520000
    49  C          0.53251200       0.13485000       0.09238000
    50  C          0.46748800       0.63485000       0.90762000
    51  C          0.68521200       0.13046000       0.02668000
    52  C          0.31478800       0.63046000       0.97332000
    53  H          0.68250000       0.16600000       0.96280000
    54  H          0.31750000       0.66600000       0.03720000
    55  C          0.84531400       0.07206000       0.05599000
    56  C          0.15468600       0.57206000       0.94401000
    57  H          0.95060000       0.06970000       0.01140000
    58  H          0.04940000       0.56970000      -0.01140000
    59  C          0.85231300       0.01867000       0.14699000
    60  C          0.14768700       0.51867000       0.85301000
    61  H          0.96050000       0.97960000       0.16270000
    62  H          0.03950000       0.47960000       0.83730000
    63  C          0.69941200       0.02056000       0.21838000
    64  C          0.30058800       0.52056000       0.78162000
    65  C          0.38041300       0.08236000       0.26188000
    66  C          0.61958700       0.58236000       0.73812000
    67  H          0.27160000       0.12100000       0.24570000
    68  H          0.72840000       0.62100000       0.75430000
    69  C          0.53581200       0.08095000       0.19177000
    70  C          0.46418800       0.58095000       0.80823000
    71  N          0.36699000       0.19394000       0.07056000
    72  N          0.63301000       0.69394000       0.92944000
    73  C          0.74331300       0.20526000       0.46417000
    74  C          0.25668700       0.70526000       0.53583000
    75  C          0.82701400       0.13756000       0.52978000
    76  C          0.17298600       0.63756000       0.47022000
    77  C          0.73741500       0.10326000       0.61767000
    78  C          0.26258500       0.60326000       0.38233000
    79  C          0.55661600       0.13977000       0.63828000
    80  C          0.44338400       0.63977000       0.36172000
    81  C          0.46551400       0.20697000       0.57349000
    82  C          0.53448600       0.70697000       0.42651000
    83  C          0.55861300       0.23856000       0.48688000
    84  C          0.44138700       0.73856000       0.51312000
    85  F          0.00429000       0.10314000       0.50845000
    86  F         -0.00429000       0.60314000       0.49155000
    87  F          0.46071000       0.11015000       0.72415000
    88  F          0.53929000       0.61015000       0.27585000
    89  F          0.29198000       0.24195000       0.59915000
    90  F          0.70802000       0.74195000       0.40085000
    91  F          0.46781000       0.30364000       0.42365000
    92  F          0.53219000       0.80364000       0.57635000
    93  I          0.88456100       0.25674400       0.33101500
    94  I          0.11543900       0.75674400       0.66898500
    95  I          0.87324120       0.00389500       0.71896600
    96  I          0.12675880       0.50389500       0.28103400
