data_VECVOP
_symmetry_space_group_name_H-M    'P1'
_symmetry_Int_Tables_number       1
loop_
_symmetry_equiv_pos_site_id
_symmetry_equiv_pos_as_xyz
1 x,y,z
_cell_length_a                   12.5213
_cell_length_b                   6.143514
_cell_length_c                   16.1953
_cell_angle_alpha                90.0
_cell_angle_beta                 108.062
_cell_angle_gamma                90.0
loop_
_atom_site_label
_atom_site_type_symbol
_atom_site_fract_x
_atom_site_fract_y
_atom_site_fract_z
     1  I          0.28526200       0.04606600       0.05095200
     2  I          0.21473800       0.54606600       0.44904800
     3  I          0.71473800       0.95393400       0.94904800
     4  I          0.78526200       0.45393400       0.55095200
     5  P          0.03244900       0.63712000       0.13183800
     6  P          0.46755100       0.13712000       0.36816200
     7  P          0.96755100       0.36288000       0.86816200
     8  P          0.53244900       0.86288000       0.63183800
     9  O          0.94732000       0.51135000       0.16152000
    10  O          0.55268000       0.01135000       0.33848000
    11  O          0.05268000       0.48865000       0.83848000
    12  O          0.44732000      -0.01135000       0.66152000
    13  C          0.00604000       0.61848000       0.01613000
    14  C          0.49396000       0.11848000       0.48387000
    15  C         -0.00604000       0.38152000       0.98387000
    16  C          0.50604000       0.88152000       0.51613000
    17  H          0.93620000       0.69890000       0.98620000
    18  H          0.56380000       0.19890000       0.51380000
    19  H          0.06380000       0.30110000       0.01380000
    20  H          0.43620000       0.80110000       0.48620000
    21  H          0.06850000       0.68850000       0.00080000
    22  H          0.43150000       0.18850000       0.49920000
    23  H          0.93150000       0.31150000      -0.00080000
    24  H          0.56850000       0.81150000       0.50080000
    25  C          0.17154000       0.53799000       0.18353000
    26  C          0.32846000       0.03799000       0.31647000
    27  C          0.82846000       0.46201000       0.81647000
    28  C          0.67154000       0.96201000       0.68353000
    29  H          0.22600000       0.63450000       0.16990000
    30  H          0.27400000       0.13450000       0.33010000
    31  H          0.77400000       0.36550000       0.83010000
    32  H          0.72600000       0.86550000       0.66990000
    33  H          0.17880000       0.39090000       0.16240000
    34  H          0.32120000       0.89090000       0.33760000
    35  H          0.82120000       0.60910000       0.83760000
    36  H          0.67880000       0.10910000       0.66240000
    37  H          0.18590000       0.53400000       0.24650000
    38  H          0.31410000       0.03400000       0.25350000
    39  H          0.81410000       0.46600000       0.75350000
    40  H          0.68590000       0.96600000       0.74650000
    41  C          0.03244000       0.92028000       0.15533000
    42  C          0.46756000       0.42028000       0.34467000
    43  C          0.96756000       0.07972000       0.84467000
    44  C          0.53244000       0.57972000       0.65533000
    45  H          0.08810000      -0.00550000       0.13410000
    46  H          0.41190000       0.49450000       0.36590000
    47  H          0.91190000       0.00550000       0.86590000
    48  H          0.58810000       0.50550000       0.63410000
    49  H          0.05150000       0.94090000       0.21820000
    50  H          0.44850000       0.44090000       0.28180000
    51  H          0.94850000       0.05910000       0.78180000
    52  H          0.55150000       0.55910000       0.71820000
    53  H          0.95770000      -0.01910000       0.12660000
    54  H          0.54230000       0.48090000       0.37340000
    55  H          0.04230000       0.01910000       0.87340000
    56  H          0.45770000       0.51910000       0.62660000
    57  N          0.73653000       0.55438000       0.13953000
    58  N          0.76347000       0.05438000       0.36047000
    59  N          0.26347000       0.44562000       0.86047000
    60  N          0.23653000       0.94562000       0.63953000
    61  H          0.82240000       0.54780000       0.13730000
    62  H          0.67760000       0.04780000       0.36270000
    63  H          0.17760000       0.45220000       0.86270000
    64  H          0.32240000       0.95220000       0.63730000
    65  C          0.69495000       0.72511000       0.16864000
    66  C          0.80505000       0.22511000       0.33136000
    67  C          0.30505000       0.27489000       0.83136000
    68  C          0.19495000       0.77489000       0.66864000
    69  H          0.74220000       0.84510000       0.19260000
    70  H          0.75780000       0.34510000       0.30740000
    71  H          0.25780000       0.15490000       0.80740000
    72  H          0.24220000       0.65490000       0.69260000
    73  C          0.58255000       0.73041200       0.16454000
    74  C          0.91745000       0.23041200       0.33546000
    75  C          0.41745000       0.26958800       0.83546000
    76  C          0.08255000       0.76958800       0.66454000
    77  H          0.55200000       0.85220000       0.18550000
    78  H          0.94800000       0.35220000       0.31450000
    79  H          0.44800000       0.14780000       0.81450000
    80  H          0.05200000       0.64780000       0.68550000
    81  C          0.51615000       0.55291300       0.12874000
    82  C          0.98385000       0.05291300       0.37126000
    83  C          0.48385000       0.44708700       0.87126000
    84  C          0.01615000       0.94708700       0.62874000
    85  H          0.43870000       0.55230000       0.12470000
    86  H          0.06130000       0.05230000       0.37530000
    87  H          0.56130000       0.44770000       0.87530000
    88  H          0.93870000       0.94770000       0.62470000
    89  C          0.56155000       0.37911000       0.09934000
    90  C          0.93845000       0.87911000       0.40066000
    91  C          0.43845000       0.62089000       0.90066000
    92  C          0.06155000       0.12089000       0.59934000
    93  H          0.51660000       0.25650000       0.07490000
    94  H          0.98340000       0.75650000       0.42510000
    95  H          0.48340000       0.74350000       0.92510000
    96  H          0.01660000       0.24350000       0.57490000
    97  C          0.67374000       0.38479000       0.10573000
    98  C          0.82626000       0.88479000       0.39427000
    99  C          0.32626000       0.61521000       0.89427000
   100  C          0.17374000       0.11521000       0.60573000
   101  H          0.70630000       0.26450000       0.08540000
   102  H          0.79370000       0.76450000       0.41460000
   103  H          0.29370000       0.73550000       0.91460000
   104  H          0.20630000       0.23550000       0.58540000
