data_VEDYOU
_symmetry_space_group_name_H-M    'P1'
_symmetry_Int_Tables_number       1
loop_
_symmetry_equiv_pos_site_id
_symmetry_equiv_pos_as_xyz
1 x,y,z
_cell_length_a                   7.02272
_cell_length_b                   12.67603
_cell_length_c                   13.17323
_cell_angle_alpha                62.16901
_cell_angle_beta                 76.28201
_cell_angle_gamma                78.61501
loop_
_atom_site_label
_atom_site_type_symbol
_atom_site_fract_x
_atom_site_fract_y
_atom_site_fract_z
     1  I          0.84577600       0.07095300       0.85497200
     2  I          0.15422400       0.92904700       0.14502800
     3  S          0.13000150       0.95044100       0.69348900
     4  S          0.86999850       0.04955900       0.30651100
     5  S          0.50402160       0.95804100       0.74718900
     6  S          0.49597840       0.04195900       0.25281100
     7  S          0.35102150       0.82162100       0.53243900
     8  S          0.64897850       0.17837900       0.46756100
     9  S          0.72788150       0.82145100       0.58938900
    10  S          0.27211850       0.17854900       0.41061100
    11  S          0.50886160       0.69272110       0.38850100
    12  S          0.49113840       0.30727890       0.61149900
    13  S          0.96625150       0.69606110       0.45605100
    14  S          0.03374850       0.30393890       0.54394900
    15  C          0.12206000       0.01314000       0.78674000
    16  C          0.87794000       0.98686000       0.21326000
    17  C          0.29497000       0.01804000       0.81004000
    18  C          0.70503000       0.98196000       0.18996000
    19  H          0.30210000       0.05210000       0.85780000
    20  H          0.69790000       0.94790000       0.14220000
    21  C          0.38146000       0.92024000       0.67163000
    22  C          0.61854000       0.07976000       0.32837000
    23  C          0.47906000       0.86534000       0.60103000
    24  C          0.52094000       0.13466000       0.39897000
    25  C          0.55566000       0.75404000       0.47324000
    26  C          0.44434000       0.24596000       0.52676000
    27  C          0.73166000       0.75484000       0.49913000
    28  C          0.26834000       0.24516000       0.50087000
    29  C          0.72736000       0.58914000       0.39514000
    30  C          0.27264000       0.41086000       0.60486000
    31  H          0.72260000       0.52630000       0.47420000
    32  H          0.27740000       0.47370000       0.52580000
    33  H          0.72680000       0.55180000       0.34540000
    34  H          0.27320000       0.44820000       0.65460000
    35  C          0.91537000       0.64485000       0.35894000
    36  C          0.08463000       0.35515000       0.64106000
    37  H          0.91340000       0.71250000       0.28270000
    38  H          0.08660000       0.28750000       0.71730000
    39  H          0.02310000       0.58680000       0.35060000
    40  H          0.97690000       0.41320000       0.64940000
    41  Cl         0.87206150       0.31981900       0.94407900
    42  Cl         0.12793850       0.68018100       0.05592100
    43  Cl         0.01446140       0.57522100       0.75927900
    44  Cl         0.98553860       0.42477900       0.24072100
    45  O          0.58644000       0.33193000       0.14212000
    46  O          0.41356000       0.66807000       0.85788000
    47  O          0.84624000       0.76383000       0.83222000
    48  O          0.15376000       0.23617000       0.16778000
    49  N          0.55856000       0.82604000       0.06224000
    50  N          0.44144000       0.17396000       0.93776000
    51  N          0.40136000       0.50893000       0.29353000
    52  N          0.59864000       0.49107000       0.70647000
    53  C          0.65086000       0.42994000       0.07343000
    54  C          0.34914000       0.57006000       0.92657000
    55  C          0.78956000       0.44774000       0.96403000
    56  C          0.21044000       0.55226000       0.03597000
    57  C          0.85225000       0.55644000       0.88643000
    58  C          0.14775000       0.44356000       0.11357000
    59  C          0.78856000       0.66544000       0.90343000
    60  C          0.21144000       0.33456000       0.09657000
    61  C          0.66176000       0.64614000       0.01463000
    62  C          0.33824000       0.35386000       0.98537000
    63  C          0.60446000       0.74774000       0.03954000
    64  C          0.39554000       0.25226000       0.96046000
    65  C          0.59836000       0.53544000       0.09403000
    66  C          0.40164000       0.46456000       0.90597000
    67  C          0.48456000       0.51894000       0.20634000
    68  C          0.51544000       0.48106000       0.79366000
