data_VEFVIM
_symmetry_space_group_name_H-M    'P1'
_symmetry_Int_Tables_number       1
loop_
_symmetry_equiv_pos_site_id
_symmetry_equiv_pos_as_xyz
1 x,y,z
_cell_length_a                   7.2342
_cell_length_b                   13.9143
_cell_length_c                   17.1414
_cell_angle_alpha                78.544
_cell_angle_beta                 82.504
_cell_angle_gamma                84.004
loop_
_atom_site_label
_atom_site_type_symbol
_atom_site_fract_x
_atom_site_fract_y
_atom_site_fract_z
     1  C          0.94925000       0.85182000       0.77453180
     2  C          0.05075000       0.14818000       0.22546820
     3  C          0.81724000       0.92842000       0.78540190
     4  C          0.18276000       0.07158000       0.21459810
     5  H          0.70430000       0.91640000       0.81700000
     6  H          0.29570000       0.08360000       0.18300000
     7  C          0.85425000       0.02322000       0.74892000
     8  C          0.14575000       0.97678000       0.25108000
     9  C          0.01905000       0.04082000       0.70303190
    10  C          0.98095000       0.95918000       0.29696810
    11  H          0.04290000       0.10490000       0.67860000
    12  H          0.95710000       0.89510000       0.32140000
    13  C          0.15045000       0.96492000       0.69252000
    14  C          0.84955000       0.03508000       0.30748000
    15  C          0.11665000       0.86962000       0.72776190
    16  C          0.88335000       0.13038000       0.27223810
    17  H          0.20550000       0.81800000       0.72020000
    18  H          0.79450000       0.18200000       0.27980000
    19  C          0.91155000       0.75012000       0.81372000
    20  C          0.08845000       0.24988000       0.18628000
    21  O          0.72073000       0.09688140       0.76163140
    22  O          0.27927000       0.90311860       0.23836860
    23  H          0.76350000       0.15020000       0.74410000
    24  H          0.23650000       0.84980000       0.25590000
    25  O          0.31423000       0.98798160       0.64804150
    26  O          0.68577000       0.01201840       0.35195850
    27  H          0.38230000       0.93750000       0.64530000
    28  H          0.61770000       0.06250000       0.35470000
    29  O          0.76813000       0.74223140       0.86664140
    30  O          0.23187000       0.25776860       0.13335860
    31  H          0.75660000       0.68390000       0.88550000
    32  H          0.24340000       0.31610000       0.11450000
    33  O          0.01083000       0.67813150       0.79706130
    34  O         -0.01083000       0.32186850       0.20293870
    35  C          0.39684000       0.60512000       0.27613180
    36  C          0.60316000       0.39488000       0.72386820
    37  C          0.51055000       0.66862000       0.22401180
    38  C          0.48945000       0.33138000       0.77598820
    39  H          0.46890000       0.73450000       0.20920000
    40  H          0.53110000       0.26550000       0.79080000
    41  C          0.68525000       0.63452000       0.19402000
    42  C          0.31475000       0.36548000       0.80598000
    43  C          0.74634000       0.53662000       0.21688190
    44  C          0.25366000       0.46338000       0.78311810
    45  H          0.86470000       0.51340000       0.19690000
    46  H          0.13530000       0.48660000       0.80310000
    47  C          0.63385000       0.47382000       0.26868190
    48  C          0.36615000       0.52618000       0.73131810
    49  C          0.45795000       0.50732000       0.29773180
    50  C          0.54205000       0.49268000       0.70226820
    51  H          0.38030000       0.46400000       0.33190000
    52  H          0.61970000       0.53600000       0.66810000
    53  C          0.20685000       0.64133000       0.30712000
    54  C          0.79315000       0.35867000       0.69288000
    55  O          0.80283000       0.69078180       0.14108160
    56  O          0.19717000       0.30921820       0.85891840
    57  H          0.75550000       0.75730000       0.13020000
    58  H          0.24450000       0.24270000       0.86980000
    59  O          0.68913000       0.37700140       0.29281130
    60  O          0.31087000       0.62299860       0.70718870
    61  H          0.78240000       0.36180000       0.26380000
    62  H          0.21760000       0.63820000       0.73620000
    63  O          0.14823000       0.72751160       0.29448140
    64  O          0.85177000       0.27248840       0.70551860
    65  O          0.10703000       0.57345150       0.35026140
    66  O          0.89297000       0.42654850       0.64973860
    67  H          0.00410000       0.59840000       0.36540000
    68  H         -0.00410000       0.40160000       0.63460000
    69  C          0.75765000       0.49823000       0.88452000
    70  C          0.24235000       0.50177000       0.11548000
    71  H          0.76000000       0.52120000       0.82970000
    72  H          0.24000000       0.47880000       0.17030000
    73  C          0.74375000       0.52913000       0.00952000
    74  C          0.25625000       0.47087000       0.99048000
    75  H          0.73770000       0.57370000       0.04380000
    76  H          0.26230000       0.42630000       0.95620000
    77  C          0.76695000       0.39903000       0.91212000
    78  C          0.23305000       0.60097000       0.08788000
    79  H          0.77430000       0.35580000       0.87660000
    80  H          0.22570000       0.64420000       0.12340000
    81  C          0.75065000       0.43103000       0.04132000
    82  C          0.24935000       0.56897000       0.95868000
    83  H          0.74520000       0.41020000       0.09650000
    84  H          0.25480000       0.58980000       0.90350000
    85  C          0.76525000       0.36382000      -0.00697000
    86  C          0.23475000       0.63618000       0.00697000
    87  C          0.78007000       0.25563000       0.02703000
    88  C          0.21993000       0.74437000       0.97297000
    89  H          0.91200000       0.23430000       0.02710000
    90  H          0.08800000       0.76570000       0.97290000
    91  H          0.72610000       0.24720000       0.08260000
    92  H          0.27390000       0.75280000       0.91740000
    93  C          0.70177000       0.19263000      -0.00757000
    94  C          0.29823000       0.80737000       0.00757000
    95  H          0.75670000       0.20030000       0.93710000
    96  H          0.24330000       0.79970000       0.06290000
    97  H          0.56990000       0.21440000      -0.00830000
    98  H          0.43010000       0.78560000       0.00830000
    99  C          0.71485000       0.08443000       0.02723000
   100  C          0.28515000       0.91557000       0.97277000
   101  C          0.74585000       0.01743000       0.97872000
   102  C          0.25415000       0.98257000       0.02128000
   103  H          0.76450000       0.03830000       0.92350000
   104  H          0.23550000       0.96170000       0.07650000
   105  C          0.69175000       0.04923000       0.10913000
   106  C          0.30825000       0.95077000       0.89087000
   107  H          0.67290000       0.09220000       0.14510000
   108  H          0.32710000       0.90780000       0.85490000
   109  C          0.74975000       0.91927000       0.01033000
   110  C          0.25025000       0.08073000       0.98967000
   111  H          0.77080000       0.87500000       0.97540000
   112  H          0.22920000       0.12500000       0.02460000
   113  C          0.69735000       0.94927000       0.13562000
   114  C          0.30265000       0.05073000       0.86438000
   115  H          0.68030000       0.92630000       0.19060000
   116  H          0.31970000       0.07370000       0.80940000
   117  N          0.74544000       0.56309190       0.93202000
   118  N          0.25456000       0.43690810       0.06798000
   119  N          0.72514000       0.88368000       0.08862000
   120  N          0.27486000       0.11632000       0.91138000
   121  C          0.68955000       0.60023000       0.46992000
   122  C          0.31045000       0.39977000       0.53008000
   123  H          0.73660000       0.53950000       0.49650000
   124  H          0.26340000       0.46050000       0.50350000
   125  C          0.71425000       0.72863000       0.36762000
   126  C          0.28575000       0.27137000       0.63238000
   127  H          0.77810000       0.75960000       0.32020000
   128  H          0.22190000       0.24040000       0.67980000
   129  C          0.52375000       0.64173000       0.50182000
   130  C          0.47625000       0.35827000       0.49818000
   131  H          0.45900000       0.60810000       0.54790000
   132  H          0.54100000       0.39190000       0.45210000
   133  C          0.55145000       0.77443000       0.39702000
   134  C          0.44855000       0.22557000       0.60298000
   135  H          0.50730000       0.83530000       0.36960000
   136  H          0.49270000       0.16470000       0.63040000
   137  C          0.45345000       0.73213000       0.46592000
   138  C          0.54655000       0.26787000       0.53408000
   139  C          0.27605000       0.78103000       0.50262000
   140  C          0.72395000       0.21897000       0.49738000
   141  H          0.29840000       0.79360000       0.55410000
   142  H          0.70160000       0.20640000       0.44590000
   143  H          0.24890000       0.84410000       0.46860000
   144  H          0.75110000       0.15590000       0.53140000
   145  C          0.11355000       0.72623000       0.51432000
   146  C          0.88645000       0.27377000       0.48568000
   147  H          0.14160000       0.66260000       0.54750000
   148  H          0.85840000       0.33740000       0.45250000
   149  H          0.08990000       0.71460000       0.46260000
   150  H          0.91010000       0.28540000       0.53740000
   151  C          0.93675000       0.77383000       0.55232000
   152  C          0.06325000       0.22617000       0.44768000
   153  C          0.83615000       0.72573000       0.61742000
   154  C          0.16385000       0.27427000       0.38258000
   155  H          0.87760000       0.66240000       0.64100000
   156  H          0.12240000       0.33760000       0.35900000
   157  C          0.87025000       0.86763000       0.52192000
   158  C          0.12975000       0.13237000       0.47808000
   159  H          0.93590000       0.90460000       0.47780000
   160  H          0.06410000       0.09540000       0.52220000
   161  C          0.67325000       0.76983000       0.64882000
   162  C          0.32675000       0.23017000       0.35118000
   163  H          0.60680000       0.73430000       0.69350000
   164  H          0.39320000       0.26570000       0.30650000
   165  C          0.70584000       0.90673000       0.55713000
   166  C          0.29416000       0.09327000       0.44287000
   167  H          0.66350000       0.97070000       0.53550000
   168  H          0.33650000       0.02930000       0.46450000
   169  N          0.78524000       0.64212000       0.40339190
   170  N          0.21476000       0.35788000       0.59660810
   171  N          0.60456000       0.85952000       0.61953190
   172  N          0.39544000       0.14048000       0.38046810
