data_VEGYEP
_symmetry_space_group_name_H-M    'P1'
_symmetry_Int_Tables_number       1
loop_
_symmetry_equiv_pos_site_id
_symmetry_equiv_pos_as_xyz
1 x,y,z
_cell_length_a                   7.37225
_cell_length_b                   9.06901
_cell_length_c                   14.897414
_cell_angle_alpha                94.0279
_cell_angle_beta                 99.7067
_cell_angle_gamma                91.0487
loop_
_atom_site_label
_atom_site_type_symbol
_atom_site_fract_x
_atom_site_fract_y
_atom_site_fract_z
     1  Cl         0.77938140       0.88169120       0.90621800
     2  Cl         0.22061860       0.11830880       0.09378200
     3  Cl         0.61956140       0.92449110       0.69855800
     4  Cl         0.38043860       0.07550890       0.30144200
     5  Cl         0.38211140       0.35169120       0.65243800
     6  Cl         0.61788860       0.64830880       0.34756200
     7  Cl         0.53296150       0.31372120       0.86139900
     8  Cl         0.46703850       0.68627880       0.13860100
     9  O          0.45884000       0.64923000       0.60372000
    10  O          0.54116000       0.35077000       0.39628000
    11  O          0.71794000       0.58213000       0.95172000
    12  O          0.28206000       0.41787000       0.04828000
    13  C          0.55884000       0.47414000       0.81183000
    14  C          0.44116000       0.52586000       0.18817000
    15  C          0.67254000       0.74124000       0.83313000
    16  C          0.32746000       0.25876000       0.16687000
    17  C          0.51475000       0.63524000       0.68303000
    18  C          0.48525000       0.36476000       0.31697000
    19  C          0.60584000       0.75984000       0.74563000
    20  C          0.39416000       0.24016000       0.25437000
    21  C          0.65585000       0.59754000       0.87353000
    22  C          0.34415000       0.40246000       0.12647000
    23  C          0.49414000       0.49134000       0.72393000
    24  C          0.50586000       0.50866000       0.27607000
    25  C          0.96396000       0.52554000       0.68432000
    26  C          0.03604000       0.47446000       0.31568000
    27  C          0.10424000       0.75564000       0.74232000
    28  C          0.89576000       0.24436000       0.25768000
    29  C          0.04264000       0.51404000       0.77632000
    30  C          0.95736000       0.48596000       0.22368000
    31  C          0.12884000       0.65824000       0.81212000
    32  C          0.87116000       0.34176000       0.18788000
    33  C         -0.00124000       0.67684000       0.65822000
    34  C          0.00124000       0.32316000       0.34178000
    35  C          0.96945000       0.86544000       0.53902000
    36  C          0.03055000       0.13456000       0.46098000
    37  C          0.22044000       0.70214000       0.89942000
    38  C          0.77956000       0.29786000       0.10058000
    39  H          0.23867700       0.63548400       0.94459100
    40  H          0.76132300       0.36451600       0.05540900
    41  C          0.14675000       0.92754000       0.54482000
    42  C          0.85325000       0.07246000       0.45518000
    43  H          0.24695000       0.87866700       0.57434600
    44  H          0.75305000       0.12133300       0.42565400
    45  C          0.02865000       0.38234000       0.81723000
    46  C          0.97135000       0.61766000       0.18277000
    47  H          0.07753000       0.37549900       0.87844900
    48  H          0.92247000       0.62450100       0.12155100
    49  C          0.87646000       0.40364000       0.63303000
    50  C          0.12354000       0.59636000       0.36697000
    51  H          0.82530500       0.40979900       0.57197500
    52  H          0.17469500       0.59020100       0.42802500
    53  C          0.93476000       0.72414000       0.57592000
    54  C          0.06524000       0.27586000       0.42408000
    55  H          0.85689600       0.65736700       0.53645900
    56  H          0.14310400       0.34263300       0.46354100
    57  C          0.16514000       0.90234000       0.76332000
    58  C          0.83486000       0.09766000       0.23668000
    59  H          0.14651700       0.97006000       0.71887900
    60  H          0.85348300       0.02994000       0.28112100
    61  C          0.17625000       0.05864000       0.50802000
    62  C          0.82375000       0.94136000       0.49198000
    63  H          0.29546700       0.09785800       0.51449100
    64  H          0.70453300       0.90214200       0.48550900
    65  C          0.25335000       0.94634000       0.85083000
    66  C          0.74665000       0.05366000       0.14917000
    67  H          0.29283300       0.04445000       0.86485200
    68  H          0.70716700       0.95555000       0.13514800
    69  C          0.86605000       0.27184000       0.67413000
    70  C          0.13395000       0.72816000       0.32587000
    71  H          0.80833800       0.18919500       0.63980800
    72  H          0.19166200       0.81080500       0.36019200
    73  C          0.28385000       0.84714000       0.91763000
    74  C          0.71615000       0.15286000       0.08237000
    75  H          0.34753900       0.87827700       0.97530500
    76  H          0.65246100       0.12172300       0.02469500
    77  C          0.93975000       0.26084000       0.76483000
    78  C          0.06025000       0.73916000       0.23517000
    79  H          0.93008600       0.17150300       0.79098100
    80  H          0.06991400       0.82849700       0.20901900
