data_VEJQEK
_symmetry_space_group_name_H-M    'P1'
_symmetry_Int_Tables_number       1
loop_
_symmetry_equiv_pos_site_id
_symmetry_equiv_pos_as_xyz
1 x,y,z
_cell_length_a                   12.83916
_cell_length_b                   37.443818
_cell_length_c                   3.92302
_cell_angle_alpha                90.0
_cell_angle_beta                 90.0
_cell_angle_gamma                90.0
loop_
_atom_site_label
_atom_site_type_symbol
_atom_site_fract_x
_atom_site_fract_y
_atom_site_fract_z
     1  Br         0.64970400       0.52482200       0.70731110
     2  Br         0.85029600       0.47517800       0.20731110
     3  Br         0.35029600       0.02482200       0.29268890
     4  Br         0.14970400       0.97517800       0.79268890
     5  Br         0.35029600       0.47517800       0.29268890
     6  Br         0.14970400       0.52482200       0.79268890
     7  Br         0.64970400       0.97517800       0.70731110
     8  Br         0.85029600       0.02482200       0.20731110
     9  O          0.28334160       0.65452600       0.48727000
    10  O          0.21665840       0.34547400      -0.01273000
    11  O          0.71665840       0.15452600       0.51273000
    12  O          0.78334160       0.84547400       0.01273000
    13  O          0.71665840       0.34547400       0.51273000
    14  O          0.78334160       0.65452600       0.01273000
    15  O          0.28334160       0.84547400       0.48727000
    16  O          0.21665840       0.15452600      -0.01273000
    17  O          0.41838180       0.68167700       0.24527000
    18  O          0.08161820       0.31832300       0.74527000
    19  O          0.58161820       0.18167700       0.75473000
    20  O          0.91838180       0.81832300       0.25473000
    21  O          0.58161820       0.31832300       0.75473000
    22  O          0.91838180       0.68167700       0.25473000
    23  O          0.41838180       0.81832300       0.24527000
    24  O          0.08161820       0.18167700       0.74527000
    25  C          0.44202000       0.62300800       0.45608000
    26  C          0.05798000       0.37699200       0.95608000
    27  C          0.55798000       0.12300800       0.54392000
    28  C          0.94202000       0.87699200       0.04392000
    29  C          0.55798000       0.37699200       0.54392000
    30  C          0.94202000       0.62300800       0.04392000
    31  C          0.44202000       0.87699200       0.45608000
    32  C          0.05798000       0.12300800       0.95608000
    33  C          0.54742000       0.62274900       0.37018000
    34  C          0.95258000       0.37725100       0.87018000
    35  C          0.45258000       0.12274900       0.62982000
    36  C          0.04742000       0.87725100       0.12982000
    37  C          0.45258000       0.37725100       0.62982000
    38  C          0.04742000       0.62274900       0.12982000
    39  C          0.54742000       0.87725100       0.37018000
    40  C          0.95258000       0.12274900       0.87018000
    41  H          0.57670100       0.64259400       0.26479200
    42  H          0.92329900       0.35740600       0.76479200
    43  H          0.42329900       0.14259400       0.73520800
    44  H          0.07670100       0.85740600       0.23520800
    45  H          0.42329900       0.35740600       0.73520800
    46  H          0.07670100       0.64259400       0.23520800
    47  H          0.57670100       0.85740600       0.26479200
    48  H          0.92329900       0.14259400       0.76479200
    49  C          0.38082000       0.65579900       0.38408000
    50  C          0.11918000       0.34420100       0.88408000
    51  C          0.61918000       0.15579900       0.61592000
    52  C          0.88082000       0.84420100       0.11592000
    53  C          0.61918000       0.34420100       0.61592000
    54  C          0.88082000       0.65579900       0.11592000
    55  C          0.38082000       0.84420100       0.38408000
    56  C          0.11918000       0.15579900       0.88408000
    57  C          0.60842000       0.59349900       0.43949000
    58  C          0.89158000       0.40650100       0.93949000
    59  C          0.39158000       0.09349900       0.56051000
    60  C          0.10842000       0.90650100       0.06051000
    61  C          0.39158000       0.40650100       0.56051000
    62  C          0.10842000       0.59349900       0.06051000
    63  C          0.60842000       0.90650100       0.43949000
    64  C          0.89158000       0.09349900       0.93949000
    65  H          0.67860300       0.59341500       0.38147400
    66  H          0.82139700       0.40658500       0.88147400
    67  H          0.32139700       0.09341500       0.61852600
    68  H          0.17860300       0.90658500       0.11852600
    69  H          0.32139700       0.40658500       0.61852600
    70  H          0.17860300       0.59341500       0.11852600
    71  H          0.67860300       0.90658500       0.38147400
    72  H          0.82139700       0.09341500       0.88147400
    73  C          0.39942000       0.59320900       0.60959000
    74  C          0.10058000       0.40679100       0.10959000
    75  C          0.60058000       0.09320900       0.39041000
    76  C          0.89942000       0.90679100       0.89041000
    77  C          0.60058000       0.40679100       0.39041000
    78  C          0.89942000       0.59320900       0.89041000
    79  C          0.39942000       0.90679100       0.60959000
    80  C          0.10058000       0.09320900       0.10959000
    81  H          0.32901500       0.59304900       0.66512700
    82  H          0.17098500       0.40695100       0.16512700
    83  H          0.67098500       0.09304900       0.33487300
    84  H          0.82901500       0.90695100       0.83487300
    85  H          0.67098500       0.40695100       0.33487300
    86  H          0.82901500       0.59304900       0.83487300
    87  H          0.32901500       0.90695100       0.66512700
    88  H          0.17098500       0.09304900       0.16512700
    89  C          0.45963000       0.56368900       0.68158000
    90  C          0.04037000       0.43631100       0.18158000
    91  C          0.54037000       0.06368900       0.31842000
    92  C          0.95963000       0.93631100       0.81842000
    93  C          0.54037000       0.43631100       0.31842000
    94  C          0.95963000       0.56368900       0.81842000
    95  C          0.45963000       0.93631100       0.68158000
    96  C          0.04037000       0.06368900       0.18158000
    97  H          0.43063000       0.54371400       0.78572500
    98  H          0.06937000       0.45628600       0.28572500
    99  H          0.56937000       0.04371400       0.21427500
   100  H          0.93063000       0.95628600       0.71427500
   101  H          0.56937000       0.45628600       0.21427500
   102  H          0.93063000       0.54371400       0.71427500
   103  H          0.43063000       0.95628600       0.78572500
   104  H          0.06937000       0.04371400       0.28572500
   105  C          0.56433000       0.56440900       0.59528000
   106  C          0.93567000       0.43559100       0.09528000
   107  C          0.43567000       0.06440900       0.40472000
   108  C          0.06433000       0.93559100       0.90472000
   109  C          0.43567000       0.43559100       0.40472000
   110  C          0.06433000       0.56440900       0.90472000
   111  C          0.56433000       0.93559100       0.59528000
   112  C          0.93567000       0.06440900       0.09528000
   113  H          0.24630000       0.67751200       0.46511000
   114  H          0.25370000       0.32248800      -0.03489000
   115  H          0.75370000       0.17751200       0.53489000
   116  H          0.74630000       0.82248800       0.03489000
   117  H          0.75370000       0.32248800       0.53489000
   118  H          0.74630000       0.67751200       0.03489000
   119  H          0.24630000       0.82248800       0.46511000
   120  H          0.25370000       0.17751200      -0.03489000
   121  N          0.31343000       0.75000000       0.21091000
   122  N          0.18657000       0.25000000       0.71091000
   123  N          0.68657000       0.25000000       0.78909000
   124  N          0.81343000       0.75000000       0.28909000
   125  N          0.18623170       0.71811600       0.48936000
   126  N          0.31376830       0.28188400      -0.01064000
   127  N          0.81376830       0.21811600       0.51064000
   128  N          0.68623170       0.78188400       0.01064000
   129  N          0.81376830       0.28188400       0.51064000
   130  N          0.68623170       0.71811600       0.01064000
   131  N          0.18623170       0.78188400       0.48936000
   132  N          0.31376830       0.21811600      -0.01064000
   133  C          0.22723000       0.75000000       0.40241000
   134  C          0.27277000       0.25000000       0.90241000
   135  C          0.77277000       0.25000000       0.59759000
   136  C          0.72723000       0.75000000       0.09759000
   137  C          0.09722000       0.71880900       0.66678000
   138  C          0.40278000       0.28119100       0.16678000
   139  C          0.90278000       0.21880900       0.33322000
   140  C          0.59722000       0.78119100       0.83322000
   141  C          0.90278000       0.28119100       0.33322000
   142  C          0.59722000       0.71880900       0.83322000
   143  C          0.09722000       0.78119100       0.66678000
   144  C          0.40278000       0.21880900       0.16678000
   145  H          0.06716000       0.69724400       0.73138600
   146  H          0.43284000       0.30275600       0.23138600
   147  H          0.93284000       0.19724400       0.26861400
   148  H          0.56716000       0.80275600       0.76861400
   149  H          0.93284000       0.30275600       0.26861400
   150  H          0.56716000       0.69724400       0.76861400
   151  H          0.06716000       0.80275600       0.73138600
   152  H          0.43284000       0.19724400       0.23138600
   153  C          0.04853000       0.75000000       0.75701100
   154  C          0.45147000       0.25000000       0.25701100
   155  C          0.95147000       0.25000000       0.24298900
   156  C          0.54853000       0.75000000       0.74298900
   157  H          0.98542100       0.75000100       0.87374700
   158  H          0.51457900       0.24999900       0.37374700
   159  H          0.01457900       0.25000100       0.12625300
   160  H          0.48542100       0.74999900       0.62625300
   161  H          0.34020000       0.73159000       0.19080000
   162  H          0.15980000       0.26841000       0.69080000
   163  H          0.65980000       0.23159000       0.80920000
   164  H          0.84020000       0.76841000       0.30920000
   165  H          0.65980000       0.26841000       0.80920000
   166  H          0.84020000       0.73159000       0.30920000
   167  H          0.34020000       0.76841000       0.19080000
   168  H          0.15980000       0.23159000       0.69080000
