data_VEJQAG
_symmetry_space_group_name_H-M    'P1'
_symmetry_Int_Tables_number       1
loop_
_symmetry_equiv_pos_site_id
_symmetry_equiv_pos_as_xyz
1 x,y,z
_cell_length_a                   12.66176
_cell_length_b                   34.815818
_cell_length_c                   3.81322
_cell_angle_alpha                90.0
_cell_angle_beta                 90.0
_cell_angle_gamma                90.0
loop_
_atom_site_label
_atom_site_type_symbol
_atom_site_fract_x
_atom_site_fract_y
_atom_site_fract_z
     1  F          0.65642100       0.49119300       0.76993000
     2  F          0.84357900       0.50880700       0.26993000
     3  F          0.34357900       0.99119300       0.23007000
     4  F          0.15642100       0.00880700       0.73007000
     5  F          0.34357900       0.50880700       0.23007000
     6  F          0.15642100       0.49119300       0.73007000
     7  F          0.65642100       0.00880700       0.76993000
     8  F          0.84357900       0.99119300       0.26993000
     9  O          0.39147100       0.35057400       0.25554000
    10  O          0.10852900       0.64942600       0.75554000
    11  O          0.60852900       0.85057400       0.74446000
    12  O          0.89147100       0.14942600       0.24446000
    13  O          0.60852900       0.64942600       0.74446000
    14  O          0.89147100       0.35057400       0.24446000
    15  O          0.39147100       0.14942600       0.25554000
    16  O          0.10852900       0.85057400       0.75554000
    17  H          0.36521900       0.32607000       0.16470000
    18  H          0.13478100       0.67393000       0.66470000
    19  H          0.63478100       0.82607000       0.83530000
    20  H          0.86521900       0.17393000       0.33530000
    21  H          0.63478100       0.67393000       0.83530000
    22  H          0.86521900       0.32607000       0.33530000
    23  H          0.36521900       0.17393000       0.16470000
    24  H          0.13478100       0.82607000       0.66470000
    25  O          0.55290900       0.32574300       0.18464000
    26  O          0.94709100       0.67425700       0.68464000
    27  O          0.44709100       0.82574300       0.81536000
    28  O          0.05290900       0.17425700       0.31536000
    29  O          0.44709100       0.67425700       0.81536000
    30  O          0.05290900       0.32574300       0.31536000
    31  O          0.55290900       0.17425700       0.18464000
    32  O          0.94709100       0.82574300       0.68464000
    33  C          0.68573140       0.43115500       0.50675000
    34  C          0.81426860       0.56884500       0.00675000
    35  C          0.31426860       0.93115500       0.49325000
    36  C          0.18573140       0.06884500      -0.00675000
    37  C          0.31426860       0.56884500       0.49325000
    38  C          0.18573140       0.43115500      -0.00675000
    39  C          0.68573140       0.06884500       0.50675000
    40  C          0.81426860       0.93115500       0.00675000
    41  H          0.75762000       0.43640100       0.49234600
    42  H          0.74238000       0.56359900      -0.00765400
    43  H          0.24238000       0.93640100       0.50765400
    44  H          0.25762000       0.06359900       0.00765400
    45  H          0.24238000       0.56359900       0.50765400
    46  H          0.25762000       0.43640100       0.00765400
    47  H          0.75762000       0.06359900       0.49234600
    48  H          0.74238000       0.93640100      -0.00765400
    49  C          0.61652160       0.45761500       0.64775000
    50  C          0.88347840       0.54238500       0.14775000
    51  C          0.38347840       0.95761500       0.35225000
    52  C          0.11652160       0.04238500       0.85225000
    53  C          0.38347840       0.54238500       0.35225000
    54  C          0.11652160       0.45761500       0.85225000
    55  C          0.61652160       0.04238500       0.64775000
    56  C          0.88347840       0.95761500       0.14775000
    57  C          0.50982150       0.45146500       0.67075000
    58  C         -0.00982150       0.54853500       0.17075000
    59  C          0.49017850       0.95146500       0.32925000
    60  C          0.00982150       0.04853500       0.82925000
    61  C          0.49017850       0.54853500       0.32925000
    62  C          0.00982150       0.45146500       0.82925000
    63  C          0.50982150       0.04853500       0.67075000
    64  C         -0.00982150       0.95146500       0.17075000
    65  H          0.46541000       0.46993400       0.76695100
    66  H          0.03459000       0.53006600       0.26695100
    67  H          0.53459000       0.96993400       0.23304900
    68  H          0.96541000       0.03006600       0.73304900
    69  H          0.53459000       0.53006600       0.23304900
    70  H          0.96541000       0.46993400       0.73304900
    71  H          0.46541000       0.03006600       0.76695100
    72  H          0.03459000       0.96993400       0.26695100
    73  C          0.46985140       0.41699500       0.54675000
    74  C          0.03014860       0.58300500       0.04675000
    75  C          0.53014860       0.91699500       0.45325000
    76  C          0.96985140       0.08300500       0.95325000
    77  C          0.53014860       0.58300500       0.45325000
    78  C          0.96985140       0.41699500       0.95325000
    79  C          0.46985140       0.08300500       0.54675000
    80  C          0.03014860       0.91699500       0.04675000
    81  H          0.39764400       0.41225200       0.55817300
    82  H          0.10235600       0.58774800       0.05817300
    83  H          0.60235600       0.91225200       0.44182700
    84  H          0.89764400       0.08774800       0.94182700
    85  H          0.60235600       0.58774800       0.44182700
    86  H          0.89764400       0.41225200       0.94182700
    87  H          0.39764400       0.08774800       0.55817300
    88  H          0.10235600       0.91225200       0.05817300
    89  C          0.49553140       0.35215500       0.27105000
    90  C          0.00446860       0.64784500       0.77105000
    91  C          0.50446860       0.85215500       0.72895000
    92  C         -0.00446860       0.14784500       0.22895000
    93  C          0.50446860       0.64784500       0.72895000
    94  C         -0.00446860       0.35215500       0.22895000
    95  C          0.49553140       0.14784500       0.27105000
    96  C          0.00446860       0.85215500       0.77105000
    97  C          0.53702130       0.38939500       0.40494000
    98  C          0.96297870       0.61060500       0.90494000
    99  C          0.46297870       0.88939500       0.59506000
   100  C          0.03702130       0.11060500       0.09506000
   101  C          0.46297870       0.61060500       0.59506000
   102  C          0.03702130       0.38939500       0.09506000
   103  C          0.53702130       0.11060500       0.40494000
   104  C          0.96297870       0.88939500       0.90494000
   105  C          0.64535140       0.39657500       0.38705000
   106  C          0.85464860       0.60342500       0.88705000
   107  C          0.35464860       0.89657500       0.61295000
   108  C          0.14535140       0.10342500       0.11295000
   109  C          0.35464860       0.60342500       0.61295000
   110  C          0.14535140       0.39657500       0.11295000
   111  C          0.64535140       0.10342500       0.38705000
   112  C          0.85464860       0.89657500       0.88705000
   113  H          0.69050900       0.37810000       0.29459900
   114  H          0.80949100       0.62190000       0.79459900
   115  H          0.30949100       0.87810000       0.70540100
   116  H          0.19050900       0.12190000       0.20540100
   117  H          0.30949100       0.62190000       0.70540100
   118  H          0.19050900       0.37810000       0.20540100
   119  H          0.69050900       0.12190000       0.29459900
   120  H          0.80949100       0.87810000       0.79459900
   121  N          0.31746110       0.28435400       0.02234000
   122  N          0.18253890       0.71564600       0.52234000
   123  N          0.68253890       0.78435400      -0.02234000
   124  N          0.81746110       0.21564600       0.47766000
   125  N          0.68253890       0.71564600      -0.02234000
   126  N          0.81746110       0.28435400       0.47766000
   127  N          0.31746110       0.21564600       0.02234000
   128  N          0.18253890       0.78435400       0.52234000
   129  N          0.45068160       0.25000000       0.29126000
   130  N          0.04931840       0.75000000       0.79126000
   131  N          0.54931840       0.75000000       0.70874000
   132  N          0.95068160       0.25000000       0.20874000
   133  H          0.48801500       0.27255000       0.30460000
   134  H          0.01198500       0.72745000       0.80460000
   135  H          0.51198500       0.77255000       0.69540000
   136  H          0.98801500       0.22745000       0.19540000
   137  H          0.51198500       0.72745000       0.69540000
   138  H          0.98801500       0.27255000       0.19540000
   139  H          0.48801500       0.22745000       0.30460000
   140  H          0.01198500       0.77255000       0.80460000
   141  C          0.36055180       0.25000000       0.10566000
   142  C          0.13944820       0.75000000       0.60566000
   143  C          0.63944820       0.75000000       0.89434000
   144  C          0.86055180       0.25000000       0.39434000
   145  C          0.22647130       0.28377500       0.84486000
   146  C          0.27352870       0.71622500       0.34486000
   147  C          0.77352870       0.78377500       0.15514000
   148  C          0.72647130       0.21622500       0.65514000
   149  C          0.77352870       0.71622500       0.15514000
   150  C          0.72647130       0.28377500       0.65514000
   151  C          0.22647130       0.21622500       0.84486000
   152  C          0.27352870       0.78377500       0.34486000
   153  H          0.19528800       0.30697900       0.78275600
   154  H          0.30471200       0.69302100       0.28275600
   155  H          0.80471200       0.80697900       0.21724400
   156  H          0.69528800       0.19302100       0.71724400
   157  H          0.80471200       0.69302100       0.21724400
   158  H          0.69528800       0.30697900       0.71724400
   159  H          0.19528800       0.19302100       0.78275600
   160  H          0.30471200       0.80697900       0.28275600
   161  C          0.17711190       0.25000000       0.75033000
   162  C          0.32288810       0.75000000       0.25033000
   163  C          0.82288810       0.75000000       0.24967000
   164  C          0.67711190       0.25000000       0.74967000
   165  H          0.11346500       0.24999900       0.62869200
   166  H          0.38653500       0.75000100       0.12869200
   167  H          0.88653500       0.74999900       0.37130800
   168  H          0.61346500       0.25000100       0.87130800
