data_VEJTIR
_symmetry_space_group_name_H-M    'P1'
_symmetry_Int_Tables_number       1
loop_
_symmetry_equiv_pos_site_id
_symmetry_equiv_pos_as_xyz
1 x,y,z
_cell_length_a                   12.76773
_cell_length_b                   38.19408
_cell_length_c                   4.074301
_cell_angle_alpha                90.0
_cell_angle_beta                 90.0
_cell_angle_gamma                90.0
loop_
_atom_site_label
_atom_site_type_symbol
_atom_site_fract_x
_atom_site_fract_y
_atom_site_fract_z
     1  I          0.64355200       0.52566200       0.71520600
     2  I          0.85644800       0.47433800       0.21520600
     3  I          0.35644800       0.02566200       0.28479400
     4  I          0.14355200       0.97433800       0.78479400
     5  I          0.35644800       0.47433800       0.28479400
     6  I          0.14355200       0.52566200       0.78479400
     7  I          0.64355200       0.97433800       0.71520600
     8  I          0.85644800       0.02566200       0.21520600
     9  O          0.26669160       0.65668600       0.48267000
    10  O          0.23330840       0.34331400      -0.01733000
    11  O          0.73330840       0.15668600       0.51733000
    12  O          0.76669160       0.84331400       0.01733000
    13  O          0.73330840       0.34331400       0.51733000
    14  O          0.76669160       0.65668600       0.01733000
    15  O          0.26669160       0.84331400       0.48267000
    16  O          0.23330840       0.15668600      -0.01733000
    17  O          0.40126180       0.68323600       0.24157000
    18  O          0.09873820       0.31676400       0.74157000
    19  O          0.59873820       0.18323600       0.75843000
    20  O          0.90126180       0.81676400       0.25843000
    21  O          0.59873820       0.31676400       0.75843000
    22  O          0.90126180       0.68323600       0.25843000
    23  O          0.40126180       0.81676400       0.24157000
    24  O          0.09873820       0.18323600       0.74157000
    25  C          0.42592000       0.62596700       0.44847000
    26  C          0.07408000       0.37403300       0.94847000
    27  C          0.57408000       0.12596700       0.55153000
    28  C          0.92592000       0.87403300       0.05153000
    29  C          0.57408000       0.37403300       0.55153000
    30  C          0.92592000       0.62596700       0.05153000
    31  C          0.42592000       0.87403300       0.44847000
    32  C          0.07408000       0.12596700       0.94847000
    33  C          0.54872000       0.56843700       0.58867000
    34  C          0.95128000       0.43156300       0.08867000
    35  C          0.45128000       0.06843700       0.41133000
    36  C          0.04872000       0.93156300       0.91133000
    37  C          0.45128000       0.43156300       0.41133000
    38  C          0.04872000       0.56843700       0.91133000
    39  C          0.54872000       0.93156300       0.58867000
    40  C          0.95128000       0.06843700       0.08867000
    41  C          0.53112000       0.62541800       0.35818000
    42  C          0.96888000       0.37458200       0.85818000
    43  C          0.46888000       0.12541800       0.64182000
    44  C          0.03112000       0.87458200       0.14182000
    45  C          0.46888000       0.37458200       0.64182000
    46  C          0.03112000       0.62541800       0.14182000
    47  C          0.53112000       0.87458200       0.35818000
    48  C          0.96888000       0.12541800       0.85818000
    49  H          0.56013100       0.64456300       0.25052300
    50  H          0.93986900       0.35543700       0.75052300
    51  H          0.43986900       0.14456300       0.74947700
    52  H          0.06013100       0.85543700       0.24947700
    53  H          0.43986900       0.35543700       0.74947700
    54  H          0.06013100       0.64456300       0.24947700
    55  H          0.56013100       0.85543700       0.25052300
    56  H          0.93986900       0.14456300       0.75052300
    57  C          0.59242000       0.59660800       0.42758000
    58  C          0.90758000       0.40339200       0.92758000
    59  C          0.40758000       0.09660800       0.57242000
    60  C          0.09242000       0.90339200       0.07242000
    61  C          0.40758000       0.40339200       0.57242000
    62  C          0.09242000       0.59660800       0.07242000
    63  C          0.59242000       0.90339200       0.42758000
    64  C          0.90758000       0.09660800       0.92758000
    65  H          0.66253800       0.59618900       0.36615500
    66  H          0.83746200       0.40381100       0.86615500
    67  H          0.33746200       0.09618900       0.63384500
    68  H          0.16253800       0.90381100       0.13384500
    69  H          0.33746200       0.40381100       0.63384500
    70  H          0.16253800       0.59618900       0.13384500
    71  H          0.66253800       0.90381100       0.36615500
    72  H          0.83746200       0.09618900       0.86615500
    73  C          0.44412000       0.56823800       0.67648000
    74  C          0.05588000       0.43176200       0.17648000
    75  C          0.55588000       0.06823800       0.32352000
    76  C          0.94412000       0.93176200       0.82352000
    77  C          0.55588000       0.43176200       0.32352000
    78  C          0.94412000       0.56823800       0.82352000
    79  C          0.44412000       0.93176200       0.67648000
    80  C          0.05588000       0.06823800       0.17648000
    81  H          0.41508500       0.54891200       0.78141800
    82  H          0.08491500       0.45108800       0.28141800
    83  H          0.58491500       0.04891200       0.21858200
    84  H          0.91508500       0.95108800       0.71858200
    85  H          0.58491500       0.45108800       0.21858200
    86  H          0.91508500       0.54891200       0.71858200
    87  H          0.41508500       0.95108800       0.78141800
    88  H          0.08491500       0.04891200       0.28141800
    89  C          0.38332000       0.59718800       0.60559000
    90  C          0.11668000       0.40281200       0.10559000
    91  C          0.61668000       0.09718800       0.39441000
    92  C          0.88332000       0.90281200       0.89441000
    93  C          0.61668000       0.40281200       0.39441000
    94  C          0.88332000       0.59718800       0.89441000
    95  C          0.38332000       0.90281200       0.60559000
    96  C          0.11668000       0.09718800       0.10559000
    97  H          0.31291300       0.59732400       0.66418500
    98  H          0.18708700       0.40267600       0.16418500
    99  H          0.68708700       0.09732400       0.33581500
   100  H          0.81291300       0.90267600       0.83581500
   101  H          0.68708700       0.40267600       0.33581500
   102  H          0.81291300       0.59732400       0.83581500
   103  H          0.31291300       0.90267600       0.66418500
   104  H          0.18708700       0.09732400       0.16418500
   105  C          0.36402000       0.65790800       0.37839000
   106  C          0.13598000       0.34209200       0.87839000
   107  C          0.63598000       0.15790800       0.62161000
   108  C          0.86402000       0.84209200       0.12161000
   109  C          0.63598000       0.34209200       0.62161000
   110  C          0.86402000       0.65790800       0.12161000
   111  C          0.36402000       0.84209200       0.37839000
   112  C          0.13598000       0.15790800       0.87839000
   113  H          0.23730000       0.67681000       0.46410000
   114  H          0.26270000       0.32319000       0.96410000
   115  H          0.76270000       0.17681000       0.53590000
   116  H          0.73730000       0.82319000       0.03590000
   117  H          0.76270000       0.32319000       0.53590000
   118  H          0.73730000       0.67681000       0.03590000
   119  H          0.23730000       0.82319000       0.46410000
   120  H          0.26270000       0.17681000       0.96410000
   121  N          0.16821170       0.71877600       0.49046000
   122  N          0.33178830       0.28122400      -0.00954000
   123  N          0.83178830       0.21877600       0.50954000
   124  N          0.66821170       0.78122400       0.00954000
   125  N          0.83178830       0.28122400       0.50954000
   126  N          0.66821170       0.71877600       0.00954000
   127  N          0.16821170       0.78122400       0.49046000
   128  N          0.33178830       0.21877600      -0.00954000
   129  N          0.29333000       0.75000000       0.21041000
   130  N          0.20667000       0.25000000       0.71041000
   131  N          0.70667000       0.25000000       0.78959000
   132  N          0.79333000       0.75000000       0.28959000
   133  C          0.20873000       0.75000000       0.40261000
   134  C          0.29127000       0.25000000       0.90261000
   135  C          0.79127000       0.25000000       0.59739000
   136  C          0.70873000       0.75000000       0.09739000
   137  C          0.08042000       0.71939800       0.66938000
   138  C          0.41958000       0.28060200       0.16938000
   139  C          0.91958000       0.21939800       0.33062000
   140  C          0.58042000       0.78060200       0.83062000
   141  C          0.91958000       0.28060200       0.33062000
   142  C          0.58042000       0.71939800       0.83062000
   143  C          0.08042000       0.78060200       0.66938000
   144  C          0.41958000       0.21939800       0.16938000
   145  H          0.05068600       0.69821400       0.73280900
   146  H          0.44931400       0.30178600       0.23280900
   147  H          0.94931400       0.19821400       0.26719100
   148  H          0.55068600       0.80178600       0.76719100
   149  H          0.94931400       0.30178600       0.26719100
   150  H          0.55068600       0.69821400       0.76719100
   151  H          0.05068600       0.80178600       0.73280900
   152  H          0.44931400       0.19821400       0.23280900
   153  C          0.03213000       0.75000000       0.76351100
   154  C          0.46787000       0.25000000       0.26351100
   155  C          0.96787000       0.25000000       0.23648900
   156  C          0.53213000       0.75000000       0.73648900
   157  H          0.97030400       0.75000100       0.88419100
   158  H          0.52969600       0.24999900       0.38419100
   159  H          0.02969600       0.25000100       0.11580900
   160  H          0.47030400       0.74999900       0.61580900
   161  H          0.32230000       0.73128000       0.17980000
   162  H          0.17770000       0.26872000       0.67980000
   163  H          0.67770000       0.23128000       0.82020000
   164  H          0.82230000       0.76872000       0.32020000
   165  H          0.67770000       0.26872000       0.82020000
   166  H          0.82230000       0.73128000       0.32020000
   167  H          0.32230000       0.76872000       0.17980000
   168  H          0.17770000       0.23128000       0.67980000
