data_VEJZOC
_symmetry_space_group_name_H-M    'P1'
_symmetry_Int_Tables_number       1
loop_
_symmetry_equiv_pos_site_id
_symmetry_equiv_pos_as_xyz
1 x,y,z
_cell_length_a                   6.80634
_cell_length_b                   9.00586
_cell_length_c                   16.620612
_cell_angle_alpha                87.5556
_cell_angle_beta                 81.3896
_cell_angle_gamma                83.0855
loop_
_atom_site_label
_atom_site_type_symbol
_atom_site_fract_x
_atom_site_fract_y
_atom_site_fract_z
     1  S          0.79706100       0.97766100       0.37821500
     2  S          0.20293900       0.02233900       0.62178500
     3  S          0.90776110       0.33133900       0.10781500
     4  S          0.09223890       0.66866100       0.89218500
     5  Cl         0.81184130       0.62172900       0.22584600
     6  Cl         0.18815870       0.37827100       0.77415400
     7  O          0.92563000       0.18202000       0.08006140
     8  O          0.07437000       0.81798000       0.91993860
     9  O          0.07423000       0.41513000       0.08959160
    10  O          0.92577000       0.58487000       0.91040840
    11  O         -0.01387000       0.88997000       0.35748160
    12  O          0.01387000       0.11003000       0.64251840
    13  O          0.62863000       0.91877000       0.35562160
    14  O          0.37137000       0.08123000       0.64437840
    15  N          0.75884000      -0.00063000       0.47483180
    16  N          0.24116000       0.00063000       0.52516820
    17  N          0.75563000       0.26303000       0.46925160
    18  N          0.24437000       0.73697000       0.53074840
    19  H          0.74321400       0.34092500       0.49857100
    20  H          0.25678600       0.65907500       0.50142900
    21  N          0.71224000       0.42134000       0.07952000
    22  N          0.28776000       0.57866000       0.92048000
    23  C          0.74354000       0.12984000       0.50682000
    24  C          0.25646000       0.87016000       0.49318000
    25  H          0.72116100       0.13067600       0.56339700
    26  H          0.27883900       0.86932400       0.43660300
    27  C          0.78714000       0.28213000       0.38499190
    28  C          0.21286000       0.71787000       0.61500810
    29  C          0.81134000       0.15723000       0.33523180
    30  C          0.18866000       0.84277000       0.66476820
    31  C          0.84614000       0.17733000       0.25149180
    32  C          0.15386000       0.82267000       0.74850820
    33  H          0.86557200       0.09412400       0.21873400
    34  H          0.13442800       0.90587600       0.78126600
    35  C          0.85264000       0.31823000       0.21538180
    36  C          0.14736000       0.68177000       0.78461820
    37  C          0.82154000       0.44163000       0.26632000
    38  C          0.17846000       0.55837000       0.73368000
    39  C          0.79084000       0.42443000       0.34912000
    40  C          0.20916000       0.57557000       0.65088000
    41  H          0.77228400       0.50792900       0.38151200
    42  H          0.22771600       0.49207100       0.61848800
    43  H          0.64650000       0.36640000       0.05020000
    44  H          0.35350000       0.63360000       0.94980000
    45  H          0.71850000       0.51330000       0.06020000
    46  H          0.28150000       0.48670000       0.93980000
    47  N          0.73994000       0.49113000       0.58384190
    48  N          0.26006000       0.50887000       0.41615810
    49  N          0.54474000       0.26413000       0.95904190
    50  N          0.45526000       0.73587000       0.04095810
    51  C          0.73844000       0.63774000       0.56832000
    52  C          0.26156000       0.36226000       0.43168000
    53  H          0.76229900       0.67035800       0.51430700
    54  H          0.23770100       0.32964200       0.48569300
    55  C          0.70354000       0.74364000       0.62802000
    56  C          0.29646000       0.25636000       0.37198000
    57  H          0.70308600       0.84465300       0.61379600
    58  H          0.29691400       0.15534700       0.38620400
    59  C          0.66884000       0.69843000       0.70942000
    60  C          0.33116000       0.30157000       0.29058000
    61  C          0.67414000       0.54544000       0.72572000
    62  C          0.32586000       0.45456000       0.27428000
    63  H          0.65438500       0.50883200       0.77914200
    64  H          0.34561500       0.49116800       0.22085800
    65  C          0.70925000       0.44804000       0.66152000
    66  C          0.29075000       0.55196000       0.33848000
    67  H          0.71125600       0.34614400       0.67359800
    68  H          0.28874400       0.65385600       0.32640200
    69  C          0.62504000       0.80504000       0.77602000
    70  C          0.37496000       0.19496000       0.22398000
    71  H          0.57242400       0.76946400       0.82710600
    72  H          0.42757600       0.23053600       0.17289400
    73  C          0.65474000       0.94694000       0.76882000
    74  C          0.34526000       0.05306000       0.23118000
    75  H          0.70862800       0.98123900       0.71762000
    76  H          0.29137200       0.01876100       0.28238000
    77  C          0.61084000       0.05523000       0.83362000
    78  C          0.38916000       0.94477000       0.16638000
    79  C          0.73825000       0.16434000       0.83742000
    80  C          0.26175000       0.83566000       0.16258000
    81  H          0.84812600       0.17060700       0.79732300
    82  H          0.15187400       0.82939300       0.20267700
    83  C          0.70125000       0.26194000       0.90032000
    84  C          0.29875000       0.73806000       0.09968000
    85  H          0.79124800       0.33119800       0.90210900
    86  H          0.20875200       0.66880200       0.09789100
    87  C          0.41855000       0.16284000       0.95392000
    88  C          0.58145000       0.83716000       0.04608000
    89  H          0.30555400       0.16310000      -0.00692800
    90  H          0.69444600       0.83690000       0.00692800
    91  C          0.44614000       0.05864000       0.89422000
    92  C          0.55386000       0.94136000       0.10578000
    93  H          0.35418200      -0.00995300       0.89424800
    94  H          0.64581800       0.00995300       0.10575200
