data_VELVIU
_symmetry_space_group_name_H-M    'P1'
_symmetry_Int_Tables_number       1
loop_
_symmetry_equiv_pos_site_id
_symmetry_equiv_pos_as_xyz
1 x,y,z
_cell_length_a                   8.551812
_cell_length_b                   10.249117
_cell_length_c                   10.576815
_cell_angle_alpha                79.32413
_cell_angle_beta                 74.99712
_cell_angle_gamma                83.76312
loop_
_atom_site_label
_atom_site_type_symbol
_atom_site_fract_x
_atom_site_fract_y
_atom_site_fract_z
     1  Br         0.32101400       0.42381400       0.85215300
     2  Br         0.67898600       0.57618600       0.14784700
     3  O          0.21493000       0.17463000       0.07902000
     4  O          0.78507000       0.82537000       0.92098000
     5  O          0.97227000       0.46653000       0.79543000
     6  O          0.02773000       0.53347000       0.20457000
     7  N          0.12503000       0.34163000       0.93012000
     8  N          0.87497000       0.65837000       0.06988000
     9  C          0.11104000       0.22684000       0.02493000
    10  C          0.88896000       0.77316000       0.97507000
    11  C          0.94496000       0.18493000       0.04143000
    12  C          0.05504000       0.81507000       0.95857000
    13  C          0.87156000       0.27283000       0.95593000
    14  C          0.12844000       0.72717000       0.04407000
    15  C          0.98726000       0.37464000       0.88123000
    16  C          0.01274000       0.62536000       0.11877000
    17  C          0.86736000       0.07784000       0.12163000
    18  C          0.13264000       0.92216000       0.87837000
    19  H          0.91660000       0.01960000       0.18050000
    20  H          0.08340000       0.98040000       0.81950000
    21  C          0.64136000       0.14844000       0.02634000
    22  C          0.35864000       0.85156000       0.97366000
    23  H          0.53670000       0.13490000       0.02330000
    24  H          0.46330000       0.86510000       0.97670000
    25  C          0.71786000       0.25584000       0.94513000
    26  C          0.28214000       0.74416000       0.05487000
    27  H          0.66860000       0.31390000       0.88610000
    28  H          0.33140000       0.68610000       0.11390000
    29  C          0.71476000       0.06014000       0.11174000
    30  C          0.28524000       0.93986000       0.88826000
    31  H          0.66010000       0.98750000       0.16340000
    32  H          0.33990000       0.01250000       0.83660000
    33  N          0.57523000       0.53363000       0.72803000
    34  N          0.42477000       0.46637000       0.27197000
    35  O          0.89413000       0.80833000       0.33312000
    36  O          0.10587000       0.19167000       0.66688000
    37  C          0.80703000       0.68653000       0.54513000
    38  C          0.19297000       0.31347000       0.45487000
    39  C          0.12844000       0.74303000       0.57843000
    40  C          0.87156000       0.25697000       0.42157000
    41  H          0.06170000       0.68550000       0.64340000
    42  H          0.93830000       0.31450000       0.35660000
    43  C          0.62944000       0.63824000       0.75843000
    44  C          0.37056000       0.36176000       0.24157000
    45  H          0.58680000       0.66000000       0.84270000
    46  H          0.41320000       0.34000000       0.15730000
    47  C          0.07814000       0.80203000       0.46493000
    48  C          0.92186000       0.19797000       0.53507000
    49  C          0.75074000       0.57793000       0.51293000
    50  C          0.24926000       0.42207000       0.48707000
    51  H          0.78940000       0.55510000       0.42870000
    52  H          0.21060000       0.44490000       0.57130000
    53  C          0.92494000       0.76944000       0.43963000
    54  C          0.07506000       0.23056000       0.56037000
    55  C          0.74544000       0.71493000       0.67083000
    56  C          0.25456000       0.28507000       0.32917000
    57  H          0.78190000       0.78570000       0.69660000
    58  H          0.21810000       0.21430000       0.30340000
    59  C          0.63724000       0.50494000       0.60733000
    60  C          0.36276000       0.49506000       0.39267000
    61  H          0.60200000       0.43130000       0.58540000
    62  H          0.39800000       0.56870000       0.41460000
    63  C          0.17904000       0.88694000       0.36994000
    64  C          0.82096000       0.11306000       0.63006000
    65  H          0.14780000       0.92730000       0.29310000
    66  H          0.85220000       0.07270000       0.70690000
    67  C          0.27544000       0.76854000       0.59594000
    68  C          0.72456000       0.23146000       0.40406000
    69  H          0.30690000       0.72980000       0.67300000
    70  H          0.69310000       0.27020000       0.32700000
    71  C          0.32535000       0.91204000       0.38835000
    72  C          0.67465000       0.08796000       0.61165000
    73  H          0.39130000       0.97100000       0.32460000
    74  H          0.60870000       0.02900000       0.67540000
    75  C          0.37555000       0.85154000       0.49895000
    76  C          0.62445000       0.14846000       0.50105000
    77  H          0.47680000       0.86640000       0.50840000
    78  H          0.52320000       0.13360000       0.49160000
