data_VELWER
_symmetry_space_group_name_H-M    'P1'
_symmetry_Int_Tables_number       1
loop_
_symmetry_equiv_pos_site_id
_symmetry_equiv_pos_as_xyz
1 x,y,z
_cell_length_a                   15.229316
_cell_length_b                   7.63769
_cell_length_c                   25.1032
_cell_angle_alpha                90.0
_cell_angle_beta                 90.0
_cell_angle_gamma                90.0
loop_
_atom_site_label
_atom_site_type_symbol
_atom_site_fract_x
_atom_site_fract_y
_atom_site_fract_z
     1  Br         0.71092200       0.53860500       0.08712200
     2  Br         0.78907800       0.46139500       0.58712200
     3  Br         0.21092200       0.96139500       0.91287800
     4  Br         0.28907800       0.03860500       0.41287800
     5  Br         0.28907800       0.46139500       0.91287800
     6  Br         0.21092200       0.53860500       0.41287800
     7  Br         0.78907800       0.03860500       0.08712200
     8  Br         0.71092200       0.96139500       0.58712200
     9  N          0.76024180       0.47344000       0.15320110
    10  N          0.73975820       0.52656000       0.65320110
    11  N          0.26024180       0.02656000       0.84679890
    12  N          0.23975820       0.97344000       0.34679890
    13  N          0.23975820       0.52656000       0.84679890
    14  N          0.26024180       0.47344000       0.34679890
    15  N          0.73975820       0.97344000       0.15320110
    16  N          0.76024180       0.02656000       0.65320110
    17  C          0.71083000       0.39994000       0.19391150
    18  C          0.78917000       0.60006000       0.69391150
    19  C          0.21083000       0.10006000       0.80608850
    20  C          0.28917000       0.89994000       0.30608850
    21  C          0.28917000       0.60006000       0.80608850
    22  C          0.21083000       0.39994000       0.30608850
    23  C          0.78917000       0.89994000       0.19391150
    24  C          0.71083000       0.10006000       0.69391150
    25  C          0.85052000       0.45675000       0.16241150
    26  C          0.64948000       0.54325000       0.66241150
    27  C          0.35052000       0.04325000       0.83758850
    28  C          0.14948000       0.95675000       0.33758850
    29  C          0.14948000       0.54325000       0.83758850
    30  C          0.35052000       0.45675000       0.33758850
    31  C          0.64948000       0.95675000       0.16241150
    32  C          0.85052000       0.04325000       0.66241150
    33  O          0.90706160       0.50263000       0.13184100
    34  O          0.59293840       0.49737000       0.63184100
    35  O          0.40706160      -0.00263000       0.86815900
    36  O          0.09293840       0.00263000       0.36815900
    37  O          0.09293840       0.49737000       0.86815900
    38  O          0.40706160       0.50263000       0.36815900
    39  O          0.59293840       0.00263000       0.13184100
    40  O          0.90706160      -0.00263000       0.63184100
    41  O          0.63102000       0.38954000       0.19510110
    42  O          0.86898000       0.61046000       0.69510110
    43  O          0.13102000       0.11046000       0.80489890
    44  O          0.36898000       0.88954000       0.30489890
    45  O          0.36898000       0.61046000       0.80489890
    46  O          0.13102000       0.38954000       0.30489890
    47  O          0.86898000       0.88954000       0.19510110
    48  O          0.63102000       0.11046000       0.69510110
    49  C          0.93193000       0.33105000       0.24521180
    50  C          0.56807000       0.66895000       0.74521180
    51  C          0.43193000       0.16895000       0.75478820
    52  C          0.06807000       0.83105000       0.25478820
    53  C          0.06807000       0.66895000       0.75478820
    54  C          0.43193000       0.33105000       0.25478820
    55  C          0.56807000       0.83105000       0.24521180
    56  C          0.93193000       0.16895000       0.74521180
    57  H          0.98820000       0.35540000       0.23280000
    58  H          0.51180000       0.64460000       0.73280000
    59  H          0.48820000       0.14460000       0.76720000
    60  H          0.01180000       0.85540000       0.26720000
    61  H          0.01180000       0.64460000       0.76720000
    62  H          0.48820000       0.35540000       0.26720000
    63  H          0.51180000       0.85540000       0.23280000
    64  H          0.98820000       0.14460000       0.73280000
    65  C          0.85863000       0.37394000       0.21577150
    66  C          0.64137000       0.62606000       0.71577150
    67  C          0.35863000       0.12606000       0.78422850
    68  C          0.14137000       0.87394000       0.28422850
    69  C          0.14137000       0.62606000       0.78422850
    70  C          0.35863000       0.37394000       0.28422850
    71  C          0.64137000       0.87394000       0.21577150
    72  C          0.85863000       0.12606000       0.71577150
    73  C          0.77452000       0.33955000       0.23460150
    74  C          0.72548000       0.66045000       0.73460150
    75  C          0.27452000       0.16045000       0.76539850
    76  C          0.22548000       0.83955000       0.26539850
    77  C          0.22548000       0.66045000       0.76539850
    78  C          0.27452000       0.33955000       0.26539850
    79  C          0.72548000       0.83955000       0.23460150
    80  C          0.77452000       0.16045000       0.73460150
    81  C          0.83584000       0.21735000       0.31209170
    82  C          0.66416000       0.78265000       0.81209170
    83  C          0.33584000       0.28265000       0.68790830
    84  C          0.16416000       0.71735000       0.18790830
    85  C          0.16416000       0.78265000       0.68790830
    86  C          0.33584000       0.21735000       0.18790830
    87  C          0.66416000       0.71735000       0.31209170
    88  C          0.83584000       0.28265000       0.81209170
    89  H          0.82920000       0.16360000       0.34510000
    90  H          0.67080000       0.83640000       0.84510000
    91  H          0.32920000       0.33640000       0.65490000
    92  H          0.17080000       0.66360000       0.15490000
    93  H          0.17080000       0.83640000       0.65490000
    94  H          0.32920000       0.16360000       0.15490000
    95  H          0.67080000       0.66360000       0.34510000
    96  H          0.82920000       0.33640000       0.84510000
    97  C          0.76123000       0.26105000       0.28305160
    98  C          0.73877000       0.73895000       0.78305160
    99  C          0.26123000       0.23895000       0.71694840
   100  C          0.23877000       0.76105000       0.21694840
   101  C          0.23877000       0.73895000       0.71694840
   102  C          0.26123000       0.26105000       0.21694840
   103  C          0.73877000       0.76105000       0.28305160
   104  C          0.76123000       0.23895000       0.78305160
   105  H          0.70510000       0.23810000       0.29590000
   106  H          0.79490000       0.76190000       0.79590000
   107  H          0.20510000       0.26190000       0.70410000
   108  H          0.29490000       0.73810000       0.20410000
   109  H          0.29490000       0.76190000       0.70410000
   110  H          0.20510000       0.23810000       0.20410000
   111  H          0.79490000       0.73810000       0.29590000
   112  H          0.70510000       0.26190000       0.79590000
   113  C          0.91893000       0.25096000       0.29354180
   114  C          0.58107000       0.74904000       0.79354180
   115  C          0.41893000       0.24904000       0.70645820
   116  C          0.08107000       0.75096000       0.20645820
   117  C          0.08107000       0.74904000       0.70645820
   118  C          0.41893000       0.25096000       0.20645820
   119  C          0.58107000       0.75096000       0.29354180
   120  C          0.91893000       0.24904000       0.79354180
   121  H          0.96710000       0.21900000       0.31400000
   122  H          0.53290000       0.78100000       0.81400000
   123  H          0.46710000       0.28100000       0.68600000
   124  H          0.03290000       0.71900000       0.18600000
   125  H          0.03290000       0.78100000       0.68600000
   126  H          0.46710000       0.21900000       0.18600000
   127  H          0.53290000       0.71900000       0.31400000
   128  H          0.96710000       0.28100000       0.81400000
   129  N          0.63677190       0.60834000       0.00296120
   130  N          0.86322810       0.39166000       0.50296120
   131  N          0.13677190       0.89166000      -0.00296120
   132  N          0.36322810       0.10834000       0.49703880
   133  N          0.36322810       0.39166000      -0.00296120
   134  N          0.13677190       0.60834000       0.49703880
   135  N          0.86322810       0.10834000       0.00296120
   136  N          0.63677190       0.89166000       0.50296120
   137  C          0.54192000       0.37575000       0.88844850
   138  C          0.95808000       0.62425000       0.38844850
   139  C          0.04192000       0.12425000       0.11155150
   140  C          0.45808000       0.87575000       0.61155150
   141  C          0.45808000       0.62425000       0.11155150
   142  C          0.04192000       0.37575000       0.61155150
   143  C          0.95808000       0.87575000       0.88844850
   144  C          0.54192000       0.12425000       0.38844850
   145  H          0.49940000       0.39030000       0.86220000
   146  H          0.00060000       0.60970000       0.36220000
   147  H         -0.00060000       0.10970000       0.13780000
   148  H          0.50060000       0.89030000       0.63780000
   149  H          0.50060000       0.60970000       0.13780000
   150  H         -0.00060000       0.39030000       0.63780000
   151  H          0.00060000       0.89030000       0.86220000
   152  H          0.49940000       0.10970000       0.36220000
   153  C          0.59183000       0.75475000       0.00079160
   154  C          0.90817000       0.24525000       0.50079160
   155  C          0.09183000       0.74525000      -0.00079160
   156  C          0.40817000       0.25475000       0.49920840
   157  C          0.40817000       0.24525000      -0.00079160
   158  C          0.09183000       0.75475000       0.49920840
   159  C          0.90817000       0.25475000       0.00079160
   160  C          0.59183000       0.74525000       0.50079160
   161  H          0.60210000       0.83880000       0.02680000
   162  H          0.89790000       0.16120000       0.52680000
   163  H          0.10210000       0.66120000       0.97320000
   164  H          0.39790000       0.33880000       0.47320000
   165  H          0.39790000       0.16120000       0.97320000
   166  H          0.10210000       0.83880000       0.47320000
   167  H          0.89790000       0.33880000       0.02680000
   168  H          0.60210000       0.66120000       0.52680000
   169  C          0.51132000       0.67025000       0.92486850
   170  C          0.98868000       0.32975000       0.42486850
   171  C          0.01132000       0.82975000       0.07513150
   172  C          0.48868000       0.17025000       0.57513150
   173  C          0.48868000       0.32975000       0.07513150
   174  C          0.01132000       0.67025000       0.57513150
   175  C          0.98868000       0.17025000       0.92486850
   176  C          0.51132000       0.82975000       0.42486850
   177  H          0.46870000       0.69150000       0.89920000
   178  H          0.03130000       0.30850000       0.39920000
   179  H          0.96870000       0.80850000       0.10080000
   180  H          0.53130000       0.19150000       0.60080000
   181  H          0.53130000       0.30850000       0.10080000
   182  H          0.96870000       0.69150000       0.60080000
   183  H          0.03130000       0.19150000       0.89920000
   184  H          0.46870000       0.80850000       0.39920000
   185  C          0.62082000       0.48515000       0.96532850
   186  C          0.87918000       0.51485000       0.46532850
   187  C          0.12082000       0.01485000       0.03467150
   188  C          0.37918000      -0.01485000       0.53467150
   189  C          0.37918000       0.51485000       0.03467150
   190  C          0.12082000       0.48515000       0.53467150
   191  C          0.87918000      -0.01485000       0.96532850
   192  C          0.62082000       0.01485000       0.46532850
   193  C          0.55692000       0.50995000       0.92502870
   194  C          0.94308000       0.49005000       0.42502870
   195  C          0.05692000      -0.00995000       0.07497130
   196  C          0.44308000       0.00995000       0.57497130
   197  C          0.44308000       0.49005000       0.07497130
   198  C          0.05692000       0.50995000       0.57497130
   199  C          0.94308000       0.00995000       0.92502870
   200  C          0.55692000      -0.00995000       0.42502870
   201  C          0.52923000       0.79175000       0.96152840
   202  C          0.97077000       0.20825000       0.46152840
   203  C          0.02923000       0.70825000       0.03847160
   204  C          0.47077000       0.29175000       0.53847160
   205  C          0.47077000       0.20825000       0.03847160
   206  C          0.02923000       0.79175000       0.53847160
   207  C          0.97077000       0.29175000       0.96152840
   208  C          0.52923000       0.70825000       0.46152840
   209  H          0.50050000       0.89920000       0.96100000
   210  H         -0.00050000       0.10080000       0.46100000
   211  H          0.00050000       0.60080000       0.03900000
   212  H          0.49950000       0.39920000       0.53900000
   213  H          0.49950000       0.10080000       0.03900000
   214  H          0.00050000       0.89920000       0.53900000
   215  H         -0.00050000       0.39920000       0.96100000
   216  H          0.50050000       0.60080000       0.46100000
   217  C          0.58873000       0.22335000       0.89056830
   218  C          0.91127000       0.77665000       0.39056830
   219  C          0.08873000       0.27665000       0.10943170
   220  C          0.41127000       0.72335000       0.60943170
   221  C          0.41127000       0.77665000       0.10943170
   222  C          0.08873000       0.22335000       0.60943170
   223  C          0.91127000       0.72335000       0.89056830
   224  C          0.58873000       0.27665000       0.39056830
   225  H          0.57760000       0.13430000       0.86620000
   226  H          0.92240000       0.86570000       0.36620000
   227  H          0.07760000       0.36570000       0.13380000
   228  H          0.42240000       0.63430000       0.63380000
   229  H          0.42240000       0.86570000       0.13380000
   230  H          0.07760000       0.13430000       0.63380000
   231  H          0.92240000       0.63430000       0.86620000
   232  H          0.57760000       0.36570000       0.36620000
   233  C          0.66863000       0.32835000       0.96623850
   234  C          0.83137000       0.67165000       0.46623850
   235  C          0.16863000       0.17165000       0.03376150
   236  C          0.33137000       0.82835000       0.53376150
   237  C          0.33137000       0.67165000       0.03376150
   238  C          0.16863000       0.32835000       0.53376150
   239  C          0.83137000       0.82835000       0.96623850
   240  C          0.66863000       0.17165000       0.46623850
   241  H          0.71130000       0.31120000       0.99230000
   242  H          0.78870000       0.68880000       0.49230000
   243  H          0.21130000       0.18880000       0.00770000
   244  H          0.28870000       0.81120000       0.50770000
   245  H          0.28870000       0.68880000       0.00770000
   246  H          0.21130000       0.31120000       0.50770000
   247  H          0.78870000       0.81120000       0.99230000
   248  H          0.71130000       0.18880000       0.49230000
   249  C          0.65363000       0.20175000       0.92976820
   250  C          0.84637000       0.79825000       0.42976820
   251  C          0.15363000       0.29825000       0.07023180
   252  C          0.34637000       0.70175000       0.57023180
   253  C          0.34637000       0.79825000       0.07023180
   254  C          0.15363000       0.20175000       0.57023180
   255  C          0.84637000       0.70175000       0.92976820
   256  C          0.65363000       0.29825000       0.42976820
   257  H          0.68650000       0.09920000       0.93060000
   258  H          0.81350000       0.90080000       0.43060000
   259  H          0.18650000       0.40080000       0.06940000
   260  H          0.31350000       0.59920000       0.56940000
   261  H          0.31350000       0.90080000       0.06940000
   262  H          0.18650000       0.09920000       0.56940000
   263  H          0.81350000       0.59920000       0.93060000
   264  H          0.68650000       0.40080000       0.43060000
