data_VELXIW
_symmetry_space_group_name_H-M    'P1'
_symmetry_Int_Tables_number       1
loop_
_symmetry_equiv_pos_site_id
_symmetry_equiv_pos_as_xyz
1 x,y,z
_cell_length_a                   11.383411
_cell_length_b                   5.05674
_cell_length_c                   23.1303
_cell_angle_alpha                90.0
_cell_angle_beta                 97.3599
_cell_angle_gamma                90.0
loop_
_atom_site_label
_atom_site_type_symbol
_atom_site_fract_x
_atom_site_fract_y
_atom_site_fract_z
     1  Br         0.26845200       0.44250500       0.43484200
     2  Br         0.73154800       0.94250500       0.06515800
     3  Br         0.73154800       0.55749500       0.56515800
     4  Br         0.26845200       0.05749500       0.93484200
     5  O          0.44008140       0.60663000       0.34169700
     6  O          0.55991860       0.10663000       0.15830300
     7  O          0.55991860       0.39337000       0.65830300
     8  O          0.44008140       0.89337000       0.84169700
     9  O          0.07047150       0.85243000       0.37704800
    10  O          0.92952850       0.35243000       0.12295200
    11  O          0.92952850       0.14757000       0.62295200
    12  O          0.07047150       0.64757000       0.87704800
    13  N          0.25820170       0.68903000       0.37159800
    14  N          0.74179830       0.18903000       0.12840200
    15  N          0.74179830       0.31097000       0.62840200
    16  N          0.25820170       0.81097000       0.87159800
    17  C          0.34782000       0.72565000       0.33706110
    18  C          0.65218000       0.22565000       0.16293890
    19  C          0.65218000       0.27435000       0.66293890
    20  C          0.34782000       0.77435000       0.83706110
    21  C          0.16052000       0.85094000       0.35511110
    22  C          0.83948000       0.35094000       0.14488890
    23  C          0.83948000       0.14906000       0.64488890
    24  C          0.16052000       0.64906000       0.85511110
    25  C          0.30420190       0.93545000       0.29464100
    26  C          0.69579810       0.43545000       0.20535900
    27  C          0.69579810       0.06455000       0.70535900
    28  C          0.30420190       0.56455000       0.79464100
    29  C          0.19262000       0.01094000       0.30519100
    30  C          0.80738000       0.51094000       0.19480900
    31  C          0.80738000      -0.01094000       0.69480900
    32  C          0.19262000       0.48906000       0.80519100
    33  C          0.35782000       0.05215000       0.25116100
    34  C          0.64218000       0.55215000       0.24883900
    35  C          0.64218000       0.94785000       0.74883900
    36  C          0.35782000       0.44785000       0.75116100
    37  H          0.43330000       0.00180000       0.24420000
    38  H          0.56670000       0.50180000       0.25580000
    39  H          0.56670000      -0.00180000       0.75580000
    40  H          0.43330000       0.49820000       0.74420000
    41  C          0.13042000       0.20315000       0.27247120
    42  C          0.86958000       0.70315000       0.22752880
    43  C          0.86958000       0.79685000       0.72752880
    44  C          0.13042000       0.29685000       0.77247120
    45  H          0.05490000       0.25280000       0.27950000
    46  H          0.94510000       0.75280000       0.22050000
    47  H          0.94510000       0.74720000       0.72050000
    48  H          0.05490000       0.24720000       0.77950000
    49  C          0.18403000       0.32045000       0.22863120
    50  C          0.81597000       0.82045000       0.27136880
    51  C          0.81597000       0.67955000       0.77136880
    52  C          0.18403000       0.17955000       0.72863120
    53  H          0.14380000       0.45140000       0.20580000
    54  H          0.85620000       0.95140000       0.29420000
    55  H          0.85620000       0.54860000       0.79420000
    56  H          0.14380000       0.04860000       0.70580000
    57  C          0.29573000       0.24755000       0.21801120
    58  C          0.70427000       0.74755000       0.28198880
    59  C          0.70427000       0.75245000       0.78198880
    60  C          0.29573000       0.25245000       0.71801120
    61  H          0.32980000       0.32990000       0.18830000
    62  H          0.67020000       0.82990000       0.31170000
    63  H          0.67020000       0.67010000       0.81170000
    64  H          0.32980000       0.17010000       0.68830000
    65  N          0.28612000       0.13394000       0.51315900
    66  N          0.71388000       0.63394000       0.98684100
    67  N          0.71388000       0.86606000       0.48684100
    68  N          0.28612000       0.36606000       0.01315900
    69  C          0.20682000       0.79185000       0.56759120
    70  C          0.79318000       0.29185000       0.93240880
    71  C          0.79318000       0.20815000       0.43240880
    72  C          0.20682000       0.70815000       0.06759120
    73  C          0.19642000      -0.01175000       0.52552120
    74  C          0.80358000       0.48825000       0.97447880
    75  C          0.80358000       0.01175000       0.47447880
    76  C          0.19642000       0.51175000       0.02552120
    77  H          0.12210000       0.01930000       0.50490000
    78  H          0.87790000       0.51930000      -0.00490000
    79  H          0.87790000      -0.01930000       0.49510000
    80  H          0.12210000       0.48070000       0.00490000
    81  C          0.31823000       0.74365000       0.59532110
    82  C          0.68177000       0.24365000       0.90467890
    83  C          0.68177000       0.25635000       0.40467890
    84  C          0.31823000       0.75635000       0.09532110
    85  H          0.33000000       0.60890000       0.62280000
    86  H          0.67000000       0.10890000       0.87720000
    87  H          0.67000000       0.39110000       0.37720000
    88  H          0.33000000       0.89110000       0.12280000
    89  C          0.39262000       0.08995000       0.54186120
    90  C          0.60738000       0.58995000       0.95813880
    91  C          0.60738000       0.91005000       0.45813880
    92  C          0.39262000       0.41005000       0.04186120
    93  H          0.45570000       0.19510000       0.53400000
    94  H          0.54430000       0.69510000       0.96600000
    95  H          0.54430000       0.80490000       0.46600000
    96  H          0.45570000       0.30490000       0.03400000
    97  C          0.41252000       0.89245000       0.58298120
    98  C          0.58748000       0.39245000       0.91701880
    99  C          0.58748000       0.10755000       0.41701880
   100  C          0.41252000       0.60755000       0.08298120
   101  H          0.48820000       0.86080000       0.60200000
   102  H          0.51180000       0.36080000       0.89800000
   103  H          0.51180000       0.13920000       0.39800000
   104  H          0.48820000       0.63920000       0.10200000
   105  C          0.10002000       0.63395000       0.57998140
   106  C          0.89998000       0.13395000       0.92001860
   107  C          0.89998000       0.36605000       0.42001860
   108  C          0.10002000       0.86605000       0.07998140
   109  H          0.12480000       0.49600000       0.60740000
   110  H          0.87520000      -0.00400000       0.89260000
   111  H          0.87520000       0.50400000       0.39260000
   112  H          0.12480000       0.00400000       0.10740000
   113  H          0.06230000       0.55730000       0.54440000
   114  H          0.93770000       0.05730000       0.95560000
   115  H          0.93770000       0.44270000       0.45560000
   116  H          0.06230000       0.94270000       0.04440000
   117  H          0.04520000       0.74840000       0.59600000
   118  H          0.95480000       0.24840000       0.90400000
   119  H          0.95480000       0.25160000       0.40400000
   120  H          0.04520000       0.75160000       0.09600000
