data_VELZIV
_symmetry_space_group_name_H-M    'P1'
_symmetry_Int_Tables_number       1
loop_
_symmetry_equiv_pos_site_id
_symmetry_equiv_pos_as_xyz
1 x,y,z
_cell_length_a                   15.0621
_cell_length_b                   8.9681
_cell_length_c                   15.3651
_cell_angle_alpha                90.0
_cell_angle_beta                 92.822
_cell_angle_gamma                90.0
loop_
_atom_site_label
_atom_site_type_symbol
_atom_site_fract_x
_atom_site_fract_y
_atom_site_fract_z
     1  C          0.70121900       0.97729000       0.14965900
     2  C          0.29878100       0.47729000       0.35034100
     3  C          0.29878100       0.02271000       0.85034100
     4  C          0.70121900       0.52271000       0.64965900
     5  N          0.77583800       0.04511000       0.12475800
     6  N          0.22416200       0.54511000       0.37524200
     7  N          0.22416200       0.95489000       0.87524200
     8  N          0.77583800       0.45489000       0.62475800
     9  C          0.81511000       0.17302000       0.16951000
    10  C          0.18489000       0.67302000       0.33049000
    11  C          0.18489000       0.82698000       0.83049000
    12  C          0.81511000       0.32698000       0.66951000
    13  C          0.80791000       0.15602000       0.26651000
    14  C          0.19209000       0.65602000       0.23349000
    15  C          0.19209000       0.84398000       0.73349000
    16  C          0.80791000       0.34398000       0.76651000
    17  C          0.71361000       0.12241000       0.28721000
    18  C          0.28639000       0.62241000       0.21279000
    19  C          0.28639000       0.87759000       0.71279000
    20  C          0.71361000       0.37759000       0.78721000
    21  C          0.67731000       0.17651000       0.36311000
    22  C          0.32269000       0.67651000       0.13689000
    23  C          0.32269000       0.82349000       0.63689000
    24  C          0.67731000       0.32349000       0.86311000
    25  C          0.59071000       0.14601000       0.38112900
    26  C          0.40929000       0.64601000       0.11887100
    27  C          0.40929000       0.85399000       0.61887100
    28  C          0.59071000       0.35399000       0.88112900
    29  C          0.53761000       0.06021000       0.32173900
    30  C          0.46239000       0.56021000       0.17826100
    31  C          0.46239000       0.93979000       0.67826100
    32  C          0.53761000       0.43979000       0.82173900
    33  C          0.57311000       0.00651000       0.24761000
    34  C          0.42689000       0.50651000       0.25239000
    35  C          0.42689000      -0.00651000       0.75239000
    36  C          0.57311000       0.49349000       0.74761000
    37  C          0.66211000       0.03541000       0.22966900
    38  C          0.33789000       0.53541000       0.27033100
    39  C          0.33789000       0.96459000       0.77033100
    40  C          0.66211000       0.46459000       0.72966900
    41  C          0.66291000       0.86029000       0.10411000
    42  C          0.33709000       0.36029000       0.39589000
    43  C          0.33709000       0.13971000       0.89589000
    44  C          0.66291000       0.63971000       0.60411000
    45  C          0.68721000       0.80649000       0.02181000
    46  C          0.31279000       0.30649000       0.47819000
    47  C          0.31279000       0.19351000       0.97819000
    48  C          0.68721000       0.69351000       0.52181000
    49  N          0.64221000       0.68789000       0.98950100
    50  N          0.35779000       0.18789000       0.51049900
    51  N          0.35779000       0.31211000       0.01049900
    52  N          0.64221000       0.81211000       0.48950100
    53  N          0.75265800       0.87469000       0.97869200
    54  N          0.24734200       0.37469000       0.52130800
    55  N          0.24734200       0.12531000       0.02130800
    56  N          0.75265800       0.62531000       0.47869200
    57  C          0.76891000       0.83399000       0.89569000
    58  C          0.23109000       0.33399000       0.60431000
    59  C          0.23109000       0.16601000       0.10431000
    60  C          0.76891000       0.66601000       0.39569000
    61  O          0.72899900       0.73799000       0.85150200
    62  O          0.27100100       0.23799000       0.64849800
    63  O          0.27100100       0.26201000       0.14849800
    64  O          0.72899900       0.76201000       0.35150200
    65  C          0.84331000       0.91329000       0.85489000
    66  C          0.15669000       0.41329000       0.64511000
    67  C          0.15669000       0.08671000       0.14511000
    68  C          0.84331000       0.58671000       0.35489000
    69  C          0.85631000       0.88908000       0.76699000
    70  C          0.14369000       0.38908000       0.73301000
    71  C          0.14369000       0.11092000       0.23301000
    72  C          0.85631000       0.61092000       0.26699000
    73  C          0.92531000       0.95738000       0.72699000
    74  C          0.07469000       0.45738000       0.77301000
    75  C          0.07469000       0.04262000       0.27301000
    76  C          0.92531000       0.54262000       0.22699000
    77  C          0.98311000       0.04992000       0.77289000
    78  C          0.01689000       0.54992000       0.72711000
    79  C          0.01689000       0.95008000       0.22711000
    80  C          0.98311000       0.45008000       0.27289000
    81  C          0.97211000       0.07422000       0.86009000
    82  C          0.02789000       0.57422000       0.63991000
    83  C          0.02789000       0.92578000       0.13991000
    84  C          0.97211000       0.42578000       0.36009000
    85  C          0.90241000       0.00722000       0.90129000
    86  C          0.09759000       0.50722000       0.59871000
    87  C          0.09759000      -0.00722000       0.09871000
    88  C          0.90241000       0.49278000       0.40129000
    89  O          0.54851700       0.19311000       0.45219700
    90  O          0.45148300       0.69311000       0.04780300
    91  O          0.45148300       0.80689000       0.54780300
    92  O          0.54851700       0.30689000       0.95219700
    93  C          0.59631000       0.28753000       0.51181000
    94  C          0.40369000       0.78753000       0.98819000
    95  C          0.40369000       0.71247000       0.48819000
    96  C          0.59631000       0.21247000       0.01181000
    97  O          0.45196700       0.03971000       0.34504700
    98  O          0.54803300       0.53971000       0.15495300
    99  O          0.54803300       0.96029000       0.65495300
   100  O          0.45196700       0.46029000       0.84504700
   101  C          0.39151000       0.97348000       0.28231000
   102  C          0.60849000       0.47348000       0.21769000
   103  C          0.60849000       0.02652000       0.71769000
   104  C          0.39151000       0.52652000       0.78231000
   105  H          0.79210000       0.01020000       0.06610000
   106  H          0.20790000       0.51020000       0.43390000
   107  H          0.20790000      -0.01020000       0.93390000
   108  H          0.79210000       0.48980000       0.56610000
   109  H          0.87910000       0.18110000       0.15049000
   110  H          0.12090000       0.68110000       0.34951000
   111  H          0.12090000       0.81890000       0.84951000
   112  H          0.87910000       0.31890000       0.65049000
   113  H          0.78310000       0.26510000       0.14810000
   114  H          0.21690000       0.76510000       0.35190000
   115  H          0.21690000       0.73490000       0.85190000
   116  H          0.78310000       0.23490000       0.64810000
   117  H          0.84610000       0.06520000       0.28910000
   118  H          0.15390000       0.56520000       0.21090000
   119  H          0.15390000       0.93480000       0.71090000
   120  H          0.84610000       0.43480000       0.78910000
   121  H          0.82810000       0.24220000       0.29910000
   122  H          0.17190000       0.74220000       0.20090000
   123  H          0.17190000       0.75780000       0.70090000
   124  H          0.82810000       0.25780000       0.79910000
   125  H          0.71210000       0.23710000       0.40610000
   126  H          0.28790000       0.73710000       0.09390000
   127  H          0.28790000       0.76290000       0.59390000
   128  H          0.71210000       0.26290000       0.90610000
   129  H          0.53719000       0.94290000       0.20619000
   130  H          0.46281000       0.44290000       0.29381000
   131  H          0.46281000       0.05710000       0.79381000
   132  H          0.53719000       0.55710000       0.70619000
   133  H          0.61229000       0.81390000       0.13069000
   134  H          0.38771000       0.31390000       0.36931000
   135  H          0.38771000       0.18610000       0.86931000
   136  H          0.61229000       0.68610000       0.63069000
   137  H          0.59210000       0.65480000       0.02110000
   138  H          0.40790000       0.15480000       0.47890000
   139  H          0.40790000       0.34520000       0.97890000
   140  H          0.59210000       0.84520000       0.52110000
   141  H          0.66210000       0.65280000       0.93590000
   142  H          0.33790000       0.15280000       0.56410000
   143  H          0.33790000       0.34720000       0.06410000
   144  H          0.66210000       0.84720000       0.43590000
   145  H          0.81710000       0.81790000       0.73790000
   146  H          0.18290000       0.31790000       0.76210000
   147  H          0.18290000       0.18210000       0.26210000
   148  H          0.81710000       0.68210000       0.23790000
   149  H          0.93110000       0.94190000       0.66690000
   150  H          0.06890000       0.44190000       0.83310000
   151  H          0.06890000       0.05810000       0.33310000
   152  H          0.93110000       0.55810000       0.16690000
   153  H          0.03310000       0.09810000       0.74490000
   154  H          0.96690000       0.59810000       0.75510000
   155  H          0.96690000       0.90190000       0.25510000
   156  H          0.03310000       0.40190000       0.24490000
   157  H          0.01210000       0.13310000       0.89190000
   158  H          0.98790000       0.63310000       0.60810000
   159  H          0.98790000       0.86690000       0.10810000
   160  H          0.01210000       0.36690000       0.39190000
   161  H          0.89510000       0.02410000       0.96590000
   162  H          0.10490000       0.52410000       0.53410000
   163  H          0.10490000       0.97590000       0.03410000
   164  H          0.89510000       0.47590000       0.46590000
   165  H          0.55510000       0.31320000       0.55310000
   166  H          0.44490000       0.81320000       0.94690000
   167  H          0.44490000       0.68680000       0.44690000
   168  H          0.55510000       0.18680000       0.05310000
   169  H          0.65010000       0.23420000       0.53210000
   170  H          0.34990000       0.73420000       0.96790000
   171  H          0.34990000       0.76580000       0.46790000
   172  H          0.65010000       0.26580000       0.03210000
   173  H          0.61710000       0.37720000       0.47910000
   174  H          0.38290000       0.87720000       0.02090000
   175  H          0.38290000       0.62280000       0.52090000
   176  H          0.61710000       0.12280000       0.97910000
   177  H          0.33210000       0.98080000       0.30910000
   178  H          0.66790000       0.48080000       0.19090000
   179  H          0.66790000       0.01920000       0.69090000
   180  H          0.33210000       0.51920000       0.80910000
   181  H          0.38810000       0.03320000       0.22710000
   182  H          0.61190000       0.53320000       0.27290000
   183  H          0.61190000       0.96680000       0.77290000
   184  H          0.38810000       0.46680000       0.72710000
   185  H          0.41210000       0.87880000       0.26610000
   186  H          0.58790000       0.37880000       0.23390000
   187  H          0.58790000       0.12120000       0.73390000
   188  H          0.41210000       0.62120000       0.76610000
   189  C          0.07121000       0.59572000       0.00431000
   190  C          0.92879000       0.09572000       0.49569000
   191  C          0.92879000       0.40428000      -0.00431000
   192  C          0.07121000       0.90428000       0.50431000
   193  C          0.08011000       0.45222000       0.03601000
   194  C          0.91989000       0.95222000       0.46399000
   195  C          0.91989000       0.54778000       0.96399000
   196  C          0.08011000       0.04778000       0.53601000
   197  C         -0.00851000       0.64202000       0.96839000
   198  C          0.00851000       0.14202000       0.53161000
   199  C          0.00851000       0.35798000       0.03161000
   200  C         -0.00851000       0.85798000       0.46839000
   201  H          0.12710000       0.66120000       0.00210000
   202  H          0.87290000       0.16120000       0.49790000
   203  H          0.87290000       0.33880000      -0.00210000
   204  H          0.12710000       0.83880000       0.50210000
   205  H          0.14210000       0.42220000       0.06710000
   206  H          0.85790000       0.92220000       0.43290000
   207  H          0.85790000       0.57780000       0.93290000
   208  H          0.14210000       0.07780000       0.56710000
   209  H          0.98090000       0.75020000       0.94990000
   210  H          0.01910000       0.25020000       0.55010000
   211  H          0.01910000       0.24980000       0.05010000
   212  H          0.98090000       0.74980000       0.44990000
