data_VEPWOF
_symmetry_space_group_name_H-M    'P1'
_symmetry_Int_Tables_number       1
loop_
_symmetry_equiv_pos_site_id
_symmetry_equiv_pos_as_xyz
1 x,y,z
_cell_length_a                   8.55644
_cell_length_b                   12.46055
_cell_length_c                   17.04607
_cell_angle_alpha                79.5612
_cell_angle_beta                 85.2742
_cell_angle_gamma                71.1552
loop_
_atom_site_label
_atom_site_type_symbol
_atom_site_fract_x
_atom_site_fract_y
_atom_site_fract_z
     1  C          0.36290180       0.38426130       0.32210900
     2  C          0.63709820       0.61573870       0.67789100
     3  F          0.27400120       0.40878900       0.38958500
     4  F          0.72599880       0.59121100       0.61041500
     5  N          0.13833190       0.52351130       0.24702100
     6  N          0.86166810       0.47648870       0.75297900
     7  H          0.09330000       0.54641700       0.28601300
     8  H          0.90670000       0.45358300       0.71398700
     9  H          0.09730000       0.55920000       0.20051600
    10  H          0.90270000       0.44080000       0.79948400
    11  C          0.28907190       0.44422120       0.25128900
    12  C          0.71092810       0.55577880       0.74871100
    13  F          0.31730160       0.46816100       0.11112600
    14  F          0.68269840       0.53183900       0.88887400
    15  C          0.38232000       0.41358140       0.18215900
    16  C          0.61768000       0.58641860       0.81784100
    17  F          0.60927170       0.30855110       0.11437700
    18  F          0.39072830       0.69144890       0.88562300
    19  C          0.60659190       0.26932130       0.25638100
    20  C          0.39340810       0.73067870       0.74361900
    21  C          0.53182000       0.33111140       0.18416100
    22  C          0.46818000       0.66888860       0.81583900
    23  F          0.84689140       0.15177100       0.19570800
    24  F          0.15310860       0.84822900       0.80429200
    25  C          0.75952000       0.18051150       0.26217120
    26  C          0.24048000       0.81948850       0.73782880
    27  F          0.96683130       0.03672900       0.33791900
    28  F          0.03316870       0.96327100       0.66208100
    29  C          0.82192000       0.12210140       0.33330130
    30  C          0.17808000       0.87789860       0.66669870
    31  F          0.80202140       0.09319100       0.47413800
    32  F          0.19797860       0.90680900       0.52586200
    33  C          0.73672000       0.15063150       0.40415120
    34  C          0.26328000       0.84936850       0.59584880
    35  F          0.51282140       0.26133100       0.47111600
    36  F          0.48717860       0.73866900       0.52888400
    37  C          0.51734180       0.29805120       0.32824900
    38  C          0.48265820       0.70194880       0.67175100
    39  C          0.58952000       0.23621140       0.40137100
    40  C          0.41048000       0.76378860       0.59862900
    41  N          0.89813190       0.83611860       0.20703110
    42  N          0.10186810       0.16388140       0.79296890
    43  H          0.94030000       0.80058100       0.24991400
    44  H          0.05970000       0.19941900       0.75008600
    45  H          0.93930000       0.81388200       0.16221400
    46  H          0.06070000       0.18611800       0.83778600
    47  F          0.73477120       0.87808200       0.34715500
    48  F          0.26522880       0.12191800       0.65284500
    49  C          0.65709180       0.93563880       0.27894800
    50  C          0.34290820       0.06436120       0.72105200
    51  F          0.74284140       0.95688900       0.06851600
    52  F          0.25715860       0.04311100       0.93148400
    53  C          0.74409180       0.91128880       0.20921900
    54  C          0.25590820       0.08871120       0.79078100
    55  F          0.44753150       0.11341100       0.06835600
    56  F          0.55246850       0.88658900       0.93164400
    57  C          0.66292000       0.97539860       0.13866900
    58  C          0.33708000       0.02460140       0.86133100
    59  F          0.19480130       0.22986100       0.14832700
    60  F          0.80519870       0.77013900       0.85167300
    61  C          0.42411180       0.08110120       0.21049900
    62  C          0.57588820       0.91889880       0.78950100
    63  C          0.51182000       0.05584140       0.13925900
    64  C          0.48818000       0.94415860       0.86074100
    65  F          0.04697120       0.26984900       0.28935800
    66  F          0.95302880       0.73015100       0.71064200
    67  C          0.26882000       0.16582130       0.21523110
    68  C          0.73118000       0.83417870       0.78476890
    69  F          0.18510160       0.14539110       0.42596700
    70  F          0.81489840       0.85460890       0.57403300
    71  C          0.19312000       0.18686130       0.28579120
    72  C          0.80688000       0.81313870       0.71420880
    73  F          0.47939140       0.98039900       0.42518600
    74  F          0.52060860       0.01960100       0.57481400
    75  C          0.26522000       0.12291140       0.35691110
    76  C          0.73478000       0.87708860       0.64308890
    77  C          0.41432000       0.03984130       0.35614900
    78  C          0.58568000       0.96015870       0.64385100
    79  C          0.50083170       0.01670110       0.28336800
    80  C          0.49916830       0.98329890       0.71663200
    81  O          0.15509130       0.74485900       0.34695600
    82  O          0.84490870       0.25514100       0.65304400
    83  O          0.28193140       0.76434900       0.18171600
    84  O          0.71806860       0.23565100       0.81828400
    85  O          0.08173140       0.74649110       0.06463600
    86  O          0.91826860       0.25350890       0.93536400
    87  O          0.87799140       0.60741100       0.10897600
    88  O          0.12200860       0.39258900       0.89102400
    89  O          0.74773140       0.59578900       0.27350700
    90  O          0.25226860       0.40421100       0.72649300
    91  O          0.94853130       0.60836900       0.39423600
    92  O          0.05146870       0.39163100       0.60576400
    93  C          0.31472000       0.75014170       0.32088110
    94  C          0.68528000       0.24985830       0.67911890
    95  H          0.39030000       0.67170000       0.31800000
    96  H          0.60970000       0.32830000       0.68200000
    97  H          0.35890000       0.78260000       0.35970000
    98  H          0.64110000       0.21740000       0.64030000
    99  C          0.30682000       0.82307160       0.24092110
   100  C          0.69318000       0.17692840       0.75907890
   101  H          0.21500000       0.89590000       0.24070000
   102  H          0.78500000       0.10410000       0.75930000
   103  H          0.41110000       0.84190000       0.22900000
   104  H          0.58890000       0.15810000       0.77100000
   105  C          0.26352000       0.83318150       0.10546100
   106  C          0.73648000       0.16681850       0.89453900
   107  H          0.36410000       0.85560000       0.09010000
   108  H          0.63590000       0.14440000       0.90990000
   109  H          0.16850000       0.90410000       0.10650000
   110  H          0.83150000       0.09590000       0.89350000
   111  C          0.23542000       0.76694160       0.04616100
   112  C          0.76458000       0.23305840       0.95383900
   113  H          0.23440000       0.81110000       0.99160000
   114  H          0.76560000       0.18890000       0.00840000
   115  H          0.32570000       0.69290000       0.04820000
   116  H          0.67430000       0.30710000       0.95180000
   117  C          0.04392000       0.68457160       0.01033900
   118  C          0.95608000       0.31542840       0.98966100
   119  H          0.12730000       0.60740000       0.01350000
   120  H          0.87270000       0.39260000       0.98650000
   121  H          0.04560000       0.72600000       0.95510000
   122  H          0.95440000       0.27400000       0.04490000
   123  C          0.87682000       0.67336170       0.03164100
   124  C          0.12318000       0.32663830       0.96835900
   125  H          0.79460000       0.75060000       0.03060000
   126  H          0.20540000       0.24940000       0.96940000
   127  H          0.84510000       0.63540000      -0.00790000
   128  H          0.15490000       0.36460000       0.00790000
   129  C          0.71702000       0.60479180       0.13489110
   130  C          0.28298000       0.39520820       0.86510890
   131  H          0.67240000       0.57140000       0.09680000
   132  H          0.32760000       0.42860000       0.90320000
   133  H          0.64290000       0.68410000       0.13620000
   134  H          0.35710000       0.31590000       0.86380000
   135  C          0.72212000       0.53472160       0.21589110
   136  C          0.27788000       0.46527840       0.78410890
   137  H          0.61670000       0.51750000       0.22810000
   138  H          0.38330000       0.48250000       0.77190000
   139  H          0.81260000       0.46100000       0.21750000
   140  H          0.18740000       0.53900000       0.78250000
   141  C          0.75672000       0.53193140       0.35113100
   142  C          0.24328000       0.46806860       0.64886900
   143  H          0.84770000       0.45840000       0.35330000
   144  H          0.15230000       0.54160000       0.64670000
   145  H          0.65210000       0.51440000       0.36570000
   146  H          0.34790000       0.48560000       0.63430000
   147  C          0.78639190       0.60047140       0.40840900
   148  C          0.21360810       0.39952860       0.59159100
   149  H          0.70440000       0.67830000       0.40090000
   150  H          0.29560000       0.32170000       0.59910000
   151  H          0.77470000       0.56270000       0.46390000
   152  H          0.22530000       0.43730000       0.53610000
   153  C          0.98932000       0.67076140       0.44715900
   154  C          0.01068000       0.32923860       0.55284100
   155  H          0.98800000       0.63050000       0.50280000
   156  H          0.01200000       0.36950000       0.49720000
   157  H          0.90720000       0.74840000       0.44360000
   158  H          0.09280000       0.25160000       0.55640000
   159  C          0.15692000       0.68010140       0.42462900
   160  C          0.84308000       0.31989860       0.57537100
   161  H          0.19080000       0.71810000       0.46340000
   162  H          0.80920000       0.28190000       0.53660000
   163  H          0.23780000       0.60240000       0.42580000
   164  H          0.76220000       0.39760000       0.57420000
