data_VESDIJ
_symmetry_space_group_name_H-M    'P1'
_symmetry_Int_Tables_number       1
loop_
_symmetry_equiv_pos_site_id
_symmetry_equiv_pos_as_xyz
1 x,y,z
_cell_length_a                   7.13161
_cell_length_b                   11.107116
_cell_length_c                   14.4262
_cell_angle_alpha                90.0
_cell_angle_beta                 101.5475
_cell_angle_gamma                90.0
loop_
_atom_site_label
_atom_site_type_symbol
_atom_site_fract_x
_atom_site_fract_y
_atom_site_fract_z
     1  I          0.13351200       0.09125200       0.51565200
     2  I          0.86648800       0.59125200       0.98434800
     3  I          0.86648800       0.90874800       0.48434800
     4  I          0.13351200       0.40874800       0.01565200
     5  O          0.39402180       0.26864110       0.55074100
     6  O          0.60597820       0.76864110       0.94925900
     7  O          0.60597820       0.73135890       0.44925900
     8  O          0.39402180       0.23135890       0.05074100
     9  N          0.33212000       0.38028130       0.54783110
    10  N          0.66788000       0.88028130       0.95216890
    11  N          0.66788000       0.61971870       0.45216890
    12  N          0.33212000       0.11971870       0.04783110
    13  C          0.33672000       0.44175160       0.63126130
    14  C          0.66328000       0.94175160       0.86873870
    15  C          0.66328000       0.55824840       0.36873870
    16  C          0.33672000       0.05824840       0.13126130
    17  C          0.40083000       0.38181170       0.71845140
    18  C          0.59917000       0.88181170       0.78154860
    19  C          0.59917000       0.61818830       0.28154860
    20  C          0.40083000       0.11818830       0.21845140
    21  H          0.43684300       0.29940100       0.71965000
    22  H          0.56315700       0.79940100       0.78035000
    23  H          0.56315700       0.70059900       0.28035000
    24  H          0.43684300       0.20059900       0.21965000
    25  C          0.41003000       0.44426190       0.80086140
    26  C          0.58997000       0.94426190       0.69913860
    27  C          0.58997000       0.55573810       0.19913860
    28  C          0.41003000       0.05573810       0.30086140
    29  H          0.45433000       0.40479200       0.85957900
    30  H          0.54567000       0.90479200       0.64042100
    31  H          0.54567000       0.59520800       0.14042100
    32  H          0.45433000       0.09520800       0.35957900
    33  C          0.35463000       0.56687190       0.80030150
    34  C          0.64537000       0.06687190       0.69969850
    35  C          0.64537000       0.43312810       0.19969850
    36  C          0.35463000       0.93312810       0.30030150
    37  H          0.36272900       0.60883900       0.85835000
    38  H          0.63727100       0.10883900       0.64165000
    39  H          0.63727100       0.39116100       0.14165000
    40  H          0.36272900       0.89116100       0.35835000
    41  C          0.28973000       0.62459180       0.71690150
    42  C          0.71027000       0.12459180       0.78309850
    43  C          0.71027000       0.37540820       0.28309850
    44  C          0.28973000       0.87540820       0.21690150
    45  H          0.25099300       0.70638600       0.71741200
    46  H          0.74900700       0.20638600       0.78258800
    47  H          0.74900700       0.29361400       0.28258800
    48  H          0.25099300       0.79361400       0.21741200
    49  C          0.27892000       0.56429160       0.62864140
    50  C          0.72108000       0.06429160       0.87135860
    51  C          0.72108000       0.43570840       0.37135860
    52  C          0.27892000       0.93570840       0.12864140
    53  C          0.21612000       0.62129160       0.54197140
    54  C          0.78388000       0.12129160       0.95802860
    55  C          0.78388000       0.37870840       0.45802860
    56  C          0.21612000       0.87870840       0.04197140
    57  H          0.17962100       0.70367100       0.53994900
    58  H          0.82037900       0.20367100       0.96005100
    59  H          0.82037900       0.29632900       0.46005100
    60  H          0.17962100       0.79632900       0.03994900
    61  C          0.20682000       0.55674170       0.45800140
    62  C          0.79318000       0.05674170       0.04199860
    63  C          0.79318000       0.44325830       0.54199860
    64  C          0.20682000       0.94325830       0.95800140
    65  C          0.13803000       0.60908180       0.36705150
    66  C          0.86197000       0.10908180       0.13294850
    67  C          0.86197000       0.39091820       0.63294850
    68  C          0.13803000       0.89091820       0.86705150
    69  H          0.09843400       0.69089200       0.36242200
    70  H          0.90156600       0.19089200       0.13757800
    71  H          0.90156600       0.30910800       0.63757800
    72  H          0.09843400       0.80910800       0.86242200
    73  C          0.12883000       0.54242000       0.28681150
    74  C          0.87117000       0.04242000       0.21318850
    75  C          0.87117000       0.45758000       0.71318850
    76  C          0.12883000       0.95758000       0.78681150
    77  H          0.08174400       0.57796900       0.22676800
    78  H          0.91825600       0.07796900       0.27323200
    79  H          0.91825600       0.42203100       0.77323200
    80  H          0.08174400       0.92203100       0.72676800
    81  C          0.18863000       0.42110190       0.29233150
    82  C          0.81137000       0.92110190       0.20766850
    83  C          0.81137000       0.57889810       0.70766850
    84  C          0.18863000       0.07889810       0.79233150
    85  H          0.18140400       0.37607200       0.23574000
    86  H          0.81859600       0.87607200       0.26426000
    87  H          0.81859600       0.62392800       0.76426000
    88  H          0.18140400       0.12392800       0.73574000
    89  C          0.25682000       0.36715180       0.37749140
    90  C          0.74318000       0.86715180       0.12250860
    91  C          0.74318000       0.63284820       0.62250860
    92  C          0.25682000       0.13284820       0.87749140
    93  H          0.29780800       0.28562100       0.38026700
    94  H          0.70219200       0.78562100       0.11973300
    95  H          0.70219200       0.71437900       0.61973300
    96  H          0.29780800       0.21437900       0.88026700
    97  C          0.26542000       0.43448160       0.46158130
    98  C          0.73458000       0.93448160       0.03841870
    99  C          0.73458000       0.56551840       0.53841870
   100  C          0.26542000       0.06551840       0.96158130
