data_VESDAB
_symmetry_space_group_name_H-M    'P1'
_symmetry_Int_Tables_number       1
loop_
_symmetry_equiv_pos_site_id
_symmetry_equiv_pos_as_xyz
1 x,y,z
_cell_length_a                   9.1325
_cell_length_b                   9.3745
_cell_length_c                   10.7556
_cell_angle_alpha                91.8331
_cell_angle_beta                 90.1191
_cell_angle_gamma                107.2669
loop_
_atom_site_label
_atom_site_type_symbol
_atom_site_fract_x
_atom_site_fract_y
_atom_site_fract_z
     1  I          0.32353700       0.63942700       0.05391600
     2  I          0.67646300       0.36057300       0.94608400
     3  I          0.08357700       0.48979700       0.19525600
     4  I          0.91642300       0.51020300       0.80474400
     5  I          0.34269600       0.03419700       0.27405600
     6  I          0.65730400       0.96580300       0.72594400
     7  I          0.25325700       0.85419700       0.47022700
     8  I          0.74674300       0.14580300       0.52977300
     9  N          0.76958000       0.46179000       0.36828000
    10  N          0.23042000       0.53821000       0.63172000
    11  O          0.84729000       0.36598000       0.35448000
    12  O          0.15271000       0.63402000       0.64552000
    13  C          0.63351300       0.43971600       0.30761100
    14  C          0.36648700       0.56028400       0.69238900
    15  H          0.59299800       0.35528600       0.25314700
    16  H          0.40700200       0.64471400       0.74685300
    17  C          0.55491400       0.54620000       0.32821700
    18  C          0.44508600       0.45380000       0.67178300
    19  H          0.45746900       0.53227600       0.29034300
    20  H          0.54253100       0.46772400       0.70965700
    21  C          0.61901800       0.66720000       0.40201600
    22  C          0.38098200       0.33280000       0.59798400
    23  H          0.56631600       0.73945300       0.41460700
    24  H          0.43368400       0.26054700       0.58539300
    25  C          0.74951700       0.68691500       0.45601500
    26  C          0.25048300       0.31308500       0.54398500
    27  H          0.79210400       0.77478800       0.50630100
    28  H          0.20789600       0.22521200       0.49369900
    29  C          0.82631200       0.58621200       0.44261100
    30  C          0.17368800       0.41378800       0.55738900
    31  H          0.92113200       0.60172700       0.48537800
    32  H          0.07886800       0.39827300       0.51462200
    33  O          0.57808000       0.80929000       0.93253000
    34  O          0.42192000       0.19071000       0.06747000
    35  N          0.68768000       0.86489000       0.02188000
    36  N          0.31232000       0.13511000       0.97812000
    37  C          0.69151000      -0.01139000       0.08379000
    38  C          0.30849000       0.01139000       0.91621000
    39  H          0.61725700       0.03776200       0.06526100
    40  H          0.38274300       0.96223800       0.93473900
    41  C          0.80181100       0.05001200       0.17601000
    42  C          0.19818900       0.94998800       0.82399000
    43  H          0.80252800       0.13787200       0.22285800
    44  H          0.19747200       0.86212800       0.77714200
    45  C          0.91201200       0.97501500       0.19621200
    46  C          0.08798800       0.02498500       0.80378800
    47  H         -0.00927900       0.01310400       0.25702700
    48  H          0.00927900      -0.01310400       0.74297300
    49  C          0.90591500       0.84551700       0.12751500
    50  C          0.09408500       0.15448300       0.87248500
    51  H         -0.02004400       0.79436200       0.14005700
    52  H          0.02004400       0.20563800       0.85994300
    53  C          0.79121300       0.79361300       0.04181300
    54  C          0.20878700       0.20638700       0.95818700
    55  H          0.78488800       0.70426200      -0.00492800
    56  H          0.21511200       0.29573800       0.00492800
