data_VESXOI
_symmetry_space_group_name_H-M    'P1'
_symmetry_Int_Tables_number       1
loop_
_symmetry_equiv_pos_site_id
_symmetry_equiv_pos_as_xyz
1 x,y,z
_cell_length_a                   7.78081
_cell_length_b                   9.649511
_cell_length_c                   15.391919
_cell_angle_alpha                92.9133
_cell_angle_beta                 90.0913
_cell_angle_gamma                90.4153
loop_
_atom_site_label
_atom_site_type_symbol
_atom_site_fract_x
_atom_site_fract_y
_atom_site_fract_z
     1  C          0.58382000       0.85749170       0.56851110
     2  C          0.41618000       0.14250830       0.43148890
     3  C          0.56162000       0.87863170       0.65766120
     4  C          0.43838000       0.12136830       0.34233880
     5  C          0.66642000       0.96064180       0.71031120
     6  C          0.33358000       0.03935820       0.28968880
     7  H          0.64650000       0.96920000       0.77120000
     8  H          0.35350000       0.03080000       0.22880000
     9  C          0.80192000       0.03100180       0.67385120
    10  C          0.19808000       0.96899820       0.32614880
    11  H          0.87680000       0.08750000       0.70950000
    12  H          0.12320000       0.91250000       0.29050000
    13  C          0.82682000       0.01792180       0.58468130
    14  C          0.17318000       0.98207820       0.41531870
    15  H          0.91730000       0.06710000       0.55830000
    16  H          0.08270000       0.93290000       0.44170000
    17  C          0.71892000       0.93291180       0.53491120
    18  C          0.28108000       0.06708820       0.46508880
    19  F          0.42746140       0.81161110       0.69436700
    20  F          0.57253860       0.18838890       0.30563300
    21  F          0.74559140       0.91935110       0.44760700
    22  F          0.25440860       0.08064890       0.55239300
    23  O          0.48869160       0.77306130       0.51513800
    24  O          0.51130840       0.22693870       0.48486200
    25  H          0.39330000       0.71920000       0.54661600
    26  H          0.60670000       0.28080000       0.45338400
    27  C          0.21372000       0.49215180       0.56987110
    28  C          0.78628000       0.50784820       0.43012890
    29  H          0.30590000       0.43740000       0.54720000
    30  H          0.69410000       0.56260000       0.45280000
    31  C          0.06682000       0.42549180       0.59643110
    32  C          0.93318000       0.57450820       0.40356890
    33  H          0.05980000       0.32710000       0.59160000
    34  H          0.94020000       0.67290000       0.40840000
    35  C          0.92852000       0.50201170       0.63046110
    36  C          0.07148000       0.49798830       0.36953890
    37  C          0.95012000       0.64663180       0.63555110
    38  C          0.04988000       0.35336820       0.36444890
    39  H          0.86060000       0.70430000       0.65820000
    40  H          0.13940000       0.29570000       0.34180000
    41  C          0.09992000       0.70463180       0.60800120
    42  C          0.90008000       0.29536820       0.39199880
    43  H          0.11130000       0.80280000       0.61280000
    44  H          0.88870000       0.19720000       0.38720000
    45  C          0.77192000       0.43189180       0.65772110
    46  C          0.22808000       0.56810820       0.34227890
    47  H          0.76240000       0.33500000       0.64420000
    48  H          0.23760000       0.66500000       0.35580000
    49  C          0.64152000       0.49307180       0.70007110
    50  C          0.35848000       0.50692820       0.29992890
    51  H          0.65170000       0.59050000       0.71130000
    52  H          0.34830000       0.40950000       0.28870000
    53  C          0.48442000       0.42783180       0.73127110
    54  C          0.51558000       0.57216820       0.26872890
    55  C          0.44032000       0.28780170       0.71349110
    56  C          0.55968000       0.71219830       0.28650890
    57  H          0.51420000       0.23070000       0.67830000
    58  H          0.48580000       0.76930000       0.32170000
    59  C          0.29302000       0.23219180       0.74596120
    60  C          0.70698000       0.76780820       0.25403880
    61  H          0.26670000       0.13690000       0.73380000
    62  H          0.73330000       0.86310000       0.26620000
    63  C          0.18112000       0.31401170       0.79671110
    64  C          0.81888000       0.68598830       0.20328890
    65  C          0.22012000       0.45325180       0.81428110
    66  C          0.77988000       0.54674820       0.18571890
    67  H          0.14460000       0.51040000       0.84840000
    68  H          0.85540000       0.48960000       0.15160000
    69  C          0.36992000       0.50783180       0.78157110
    70  C          0.63008000       0.49216820       0.21842890
    71  H          0.39570000       0.60320000       0.79380000
    72  H          0.60430000       0.39680000       0.20620000
    73  C          0.91618000       0.33107170       0.87642110
    74  C          0.08382000       0.66892830       0.12357890
    75  H          0.87350000       0.40910000       0.84330000
    76  H          0.12650000       0.59090000       0.15670000
    77  H          0.97240000       0.36950000       0.93020000
    78  H          0.02760000       0.63050000       0.06980000
    79  C          0.76968000       0.23644180       0.89857120
    80  C          0.23032000       0.76355820       0.10142880
    81  H          0.81600000       0.15710000       0.92930000
    82  H          0.18400000       0.84290000       0.07070000
    83  H          0.71560000       0.19910000       0.84390000
    84  H          0.28440000       0.80090000       0.15610000
    85  C          0.63268000       0.30751170       0.95521120
    86  C          0.36732000       0.69248830       0.04478880
    87  H          0.68670000       0.34680000       0.00940000
    88  H          0.31330000       0.65320000       0.99060000
    89  H          0.58340000       0.38520000       0.92400000
    90  H          0.41660000       0.61480000       0.07600000
    91  C          0.48898000       0.20845180       0.97834120
    92  C          0.51102000       0.79154820       0.02165880
    93  H          0.53870000       0.13230000       0.01080000
    94  H          0.46130000       0.86770000       0.98920000
    95  H          0.43860000       0.16690000       0.92390000
    96  H          0.56140000       0.83310000       0.07610000
    97  C          0.34638000       0.27595180       0.03262120
    98  C          0.65362000       0.72404820       0.96737880
    99  H          0.39660000       0.31710000       0.08730000
   100  H          0.60340000       0.68290000       0.91270000
   101  H          0.29680000       0.35230000       0.00030000
   102  H          0.70320000       0.64770000      -0.00030000
   103  C          0.20328000       0.17610180       0.05501120
   104  C          0.79672000       0.82389820       0.94498880
   105  H          0.25400000       0.09630000       0.08360000
   106  H          0.74600000       0.90370000       0.91640000
   107  H          0.14760000       0.14010000       0.00050000
   108  H          0.85240000       0.85990000      -0.00050000
   109  C          0.06698000       0.24131190       0.11445120
   110  C          0.93302000       0.75868810       0.88554880
   111  H          0.12330000       0.27920000       0.16840000
   112  H          0.87670000       0.72080000       0.83160000
   113  H          0.01510000       0.32000000       0.08530000
   114  H         -0.01510000       0.68000000       0.91470000
   115  C          0.92477000       0.14252000       0.13891130
   116  C          0.07523000       0.85748000       0.86108870
   117  H          0.86350000       0.10850000       0.08630000
   118  H          0.13650000       0.89150000       0.91370000
   119  H          0.84450000       0.19110000       0.17860000
   120  H          0.15550000       0.80890000       0.82140000
   121  H          0.97470000       0.06380000       0.16770000
   122  H          0.02530000       0.93620000       0.83230000
   123  N          0.23236180       0.63065150       0.57452900
   124  N          0.76763820       0.36934850       0.42547100
   125  O          0.03602150       0.24974120       0.82488800
   126  O          0.96397850       0.75025880       0.17511200
