data_VESYID
_symmetry_space_group_name_H-M    'P1'
_symmetry_Int_Tables_number       1
loop_
_symmetry_equiv_pos_site_id
_symmetry_equiv_pos_as_xyz
1 x,y,z
_cell_length_a                   5.693615
_cell_length_b                   12.5393
_cell_length_c                   16.7144
_cell_angle_alpha                99.8545
_cell_angle_beta                 95.8665
_cell_angle_gamma                92.0655
loop_
_atom_site_label
_atom_site_type_symbol
_atom_site_fract_x
_atom_site_fract_y
_atom_site_fract_z
     1  C          0.91355000       0.45252000       0.24462150
     2  C          0.08645000       0.54748000       0.75537850
     3  C          0.05836000       0.40272000       0.18803150
     4  C          0.94164000       0.59728000       0.81196850
     5  C          0.00825000       0.40302000       0.10602150
     6  C         -0.00825000       0.59698000       0.89397850
     7  C          0.81675000       0.45092000       0.07419150
     8  C          0.18325000       0.54908000       0.92580850
     9  H          0.78460000       0.45050000       0.01720000
    10  H          0.21540000       0.54950000       0.98280000
    11  C          0.67275000       0.49992000       0.12989150
    12  C          0.32725000       0.50008000       0.87010850
    13  C          0.71885000       0.50012000       0.21189150
    14  C          0.28115000       0.49988000       0.78810850
    15  F          0.24867000       0.35227120       0.21490800
    16  F          0.75133000       0.64772880       0.78509200
    17  F          0.15667000       0.35240130       0.05494800
    18  F          0.84333000       0.64759870       0.94505200
    19  F          0.48157000       0.55050120       0.10363900
    20  F          0.51843000       0.44949880       0.89636100
    21  F          0.57057000       0.54922120       0.26317800
    22  F          0.42943000       0.45077880       0.73682200
    23  O          0.95217000       0.45641150       0.32521100
    24  O          0.04783000       0.54358850       0.67478900
    25  H          0.10840000       0.42130000       0.34941900
    26  H          0.89160000       0.57870000       0.65058100
    27  C          0.43015000       0.35672000       0.54001150
    28  C          0.56985000       0.64328000       0.45998850
    29  H          0.39940000       0.36510000       0.59550000
    30  H          0.60060000       0.63490000       0.40450000
    31  C          0.27685000       0.39392000       0.48367150
    32  C          0.72315000       0.60608000       0.51632850
    33  H          0.14180000       0.42860000       0.50210000
    34  H          0.85820000       0.57140000       0.49790000
    35  C          0.50075000       0.33672000       0.38020160
    36  C          0.49925000       0.66328000       0.61979840
    37  H          0.52790000       0.33030000       0.32450000
    38  H          0.47210000       0.66970000       0.67550000
    39  C          0.66275000       0.29702000       0.43254150
    40  C          0.33725000       0.70298000       0.56745850
    41  H          0.79630000       0.26280000       0.41220000
    42  H          0.20370000       0.73720000       0.58780000
    43  C          0.63366000       0.30610190       0.51507150
    44  C          0.36634000       0.69389810       0.48492850
    45  C          0.81035000       0.26492000       0.56990150
    46  C          0.18965000       0.73508000       0.43009850
    47  H          0.92940000       0.22360000       0.54550000
    48  H          0.07060000       0.77640000       0.45450000
    49  C          0.81985000       0.27992000       0.65117150
    50  C          0.18015000       0.72008000       0.34882850
    51  H          0.69800000       0.32020000       0.67460000
    52  H          0.30200000       0.67980000       0.32540000
    53  C         -0.00505000       0.24202000       0.70862150
    54  C          0.00505000       0.75798000       0.29137850
    55  C          0.19215000       0.18452000       0.68501150
    56  C          0.80785000       0.81548000       0.31498850
    57  H          0.21370000       0.16730000       0.62870000
    58  H          0.78630000       0.83270000       0.37130000
    59  C          0.35405000       0.15282000       0.74226150
    60  C          0.64595000       0.84718000       0.25773850
    61  H          0.48580000       0.11420000       0.72510000
    62  H          0.51420000       0.88580000       0.27490000
    63  C          0.32584000       0.17692000       0.82530150
    64  C          0.67416000       0.82308000       0.17469850
    65  C          0.13185000       0.23312000       0.84978150
    66  C          0.86815000       0.76688000       0.15021850
    67  H          0.11030000       0.25000000       0.90610000
    68  H          0.88970000       0.75000000       0.09390000
    69  C          0.97005000       0.26422000       0.79168150
    70  C          0.02995000       0.73578000       0.20831850
    71  H          0.83770000       0.30210000       0.80910000
    72  H          0.16230000       0.69790000       0.19090000
    73  C          0.48385000       0.17012000       0.96324140
    74  C          0.51615000       0.82988000       0.03675860
    75  H          0.33620000       0.13710000       0.97720000
    76  H          0.66380000       0.86290000       0.02280000
    77  H          0.48280000       0.24980000       0.98000000
    78  H          0.51720000       0.75020000       0.02000000
    79  C          0.69515000       0.12772000       0.00687140
    80  C          0.30485000       0.87228000      -0.00687140
    81  H          0.84040000       0.16500000      -0.00500000
    82  H          0.15960000       0.83500000       0.00500000
    83  H          0.70220000       0.04940000       0.98530000
    84  H          0.29780000       0.95060000       0.01470000
    85  C          0.69015000       0.14352000       0.09884140
    86  C          0.30985000       0.85648000       0.90115860
    87  H          0.54740000       0.10420000       0.11080000
    88  H          0.45260000       0.89580000       0.88920000
    89  H          0.67770000       0.22160000       0.12020000
    90  H          0.32230000       0.77840000       0.87980000
    91  C          0.90764000       0.10382000       0.14317140
    92  C          0.09236000       0.89618000       0.85682860
    93  H          0.05000000       0.14260000       0.13050000
    94  H          0.95000000       0.85740000       0.86950000
    95  H          0.91890000       0.02570000       0.12190000
    96  H          0.08110000       0.97430000       0.87810000
    97  C          0.90765000       0.11992000       0.23563140
    98  C          0.09235000       0.88008000       0.76436860
    99  H          0.91080000       0.19850000       0.25750000
   100  H          0.08920000       0.80150000       0.74250000
   101  H          0.75860000       0.08660000       0.24830000
   102  H          0.24140000       0.91340000       0.75170000
   103  C          0.11475000       0.07152000       0.27879140
   104  C          0.88525000       0.92848000       0.72120860
   105  H          0.26370000       0.10340000       0.26500000
   106  H          0.73630000       0.89660000       0.73500000
   107  H          0.10920000      -0.00750000       0.25790000
   108  H          0.89080000       0.00750000       0.74210000
   109  C          0.11795000       0.08982000       0.37112150
   110  C          0.88205000       0.91018000       0.62887850
   111  H          0.96430000       0.06240000       0.38460000
   112  H          0.03570000       0.93760000       0.61540000
   113  H          0.13370000       0.16880000       0.39210000
   114  H          0.86630000       0.83120000       0.60790000
   115  C          0.31505000       0.03582000       0.41502160
   116  C          0.68495000       0.96418000       0.58497840
   117  H          0.29340000       0.95690000       0.39830000
   118  H          0.70660000       0.04310000       0.60170000
   119  H          0.31060000       0.05500000       0.47420000
   120  H          0.68940000       0.94500000       0.52580000
   121  H          0.46810000       0.06070000       0.40090000
   122  H          0.53190000       0.93930000       0.59910000
   123  N          0.30586000       0.38429170       0.40395120
   124  N          0.69414000       0.61570830       0.59604880
   125  O          0.49813000       0.14285140       0.87669100
   126  O          0.50187000       0.85714860       0.12330900
