data_VEVGAG
_symmetry_space_group_name_H-M    'P1'
_symmetry_Int_Tables_number       1
loop_
_symmetry_equiv_pos_site_id
_symmetry_equiv_pos_as_xyz
1 x,y,z
_cell_length_a                   7.72882
_cell_length_b                   8.63973
_cell_length_c                   9.74393
_cell_angle_alpha                74.099312
_cell_angle_beta                 81.462813
_cell_angle_gamma                63.855815
loop_
_atom_site_label
_atom_site_type_symbol
_atom_site_fract_x
_atom_site_fract_y
_atom_site_fract_z
     1  O          0.04617140       0.19645120       0.51186100
     2  O          0.95382860       0.80354880       0.48813900
     3  C          0.96299170       0.24035150       0.38764130
     4  C          0.03700830       0.75964850       0.61235870
     5  N          0.91599170       0.13204130       0.34451120
     6  N          0.08400830       0.86795870       0.65548880
     7  N          0.83163170       0.22543150       0.21450120
     8  N          0.16836830       0.77456850       0.78549880
     9  C          0.82829160       0.38984160       0.17714130
    10  C          0.17170840       0.61015840       0.82285870
    11  C          0.91304150       0.40588150       0.28692120
    12  C          0.08695850       0.59411850       0.71307880
    13  C          0.93073180       0.56298170       0.27884150
    14  C          0.06926820       0.43701830       0.72115850
    15  C          0.86299190       0.69818180       0.16026160
    16  C          0.13700810       0.30181820       0.83973840
    17  C          0.77712000       0.68121190       0.05141160
    18  C          0.22288000       0.31878810       0.94858840
    19  C          0.75676190       0.52991180       0.05695140
    20  C          0.24323810       0.47008820       0.94304860
    21  H          0.06230000       0.07130000       0.56620000
    22  H          0.93770000       0.92870000       0.43380000
    23  H          0.79920000       0.16820000       0.16620000
    24  H          0.20080000       0.83180000       0.83380000
    25  H          0.99020000       0.57501900       0.35661700
    26  H          0.00980000       0.42498100       0.64338300
    27  H          0.86920000       0.81320000       0.14941700
    28  H          0.13080000       0.18680000       0.85058300
    29  H          0.72720000       0.78020000       0.96808100
    30  H          0.27280000       0.21980000       0.03191900
    31  H          0.69520000       0.51820000       0.97988200
    32  H          0.30480000       0.48180000       0.02011800
    33  C          0.44825150       0.65853150       0.39205120
    34  C          0.55174850       0.34146850       0.60794880
    35  C          0.41265170       0.51323160       0.37831130
    36  C          0.58734830       0.48676840       0.62168870
    37  C          0.46125170       0.36322160       0.48063130
    38  C          0.53874830       0.63677840       0.51936870
    39  C          0.39825170       0.81275160       0.28702130
    40  C          0.60174830       0.18724840       0.71297870
    41  C          0.43705190       0.95764170       0.29527140
    42  C          0.56294810       0.04235830       0.70472860
    43  N          0.46742000       0.07473180       0.29678160
    44  N          0.53258000       0.92526820       0.70321840
    45  C          0.30974180       0.83770160       0.15886140
    46  C          0.69025820       0.16229840       0.84113860
    47  N          0.24191190       0.85781160       0.05527130
    48  N          0.75808810       0.14218840       0.94472870
    49  H          0.35021800       0.52461700       0.29621500
    50  H          0.64978200       0.47538300       0.70378500
    51  H          0.43571900       0.27131800       0.46901500
    52  H          0.56428100       0.72868200       0.53098500
