data_VEWLAL
_symmetry_space_group_name_H-M    'P1'
_symmetry_Int_Tables_number       1
loop_
_symmetry_equiv_pos_site_id
_symmetry_equiv_pos_as_xyz
1 x,y,z
_cell_length_a                   9.08203
_cell_length_b                   23.27317
_cell_length_c                   12.65364
_cell_angle_alpha                90.0
_cell_angle_beta                 96.16801
_cell_angle_gamma                90.0
loop_
_atom_site_label
_atom_site_type_symbol
_atom_site_fract_x
_atom_site_fract_y
_atom_site_fract_z
     1  C          0.28773000       0.33181100       0.82194190
     2  C          0.71227000       0.83181100       0.67805810
     3  C          0.71227000       0.66818900       0.17805810
     4  C          0.28773000       0.16818900       0.32194190
     5  H          0.27311400       0.32465000       0.89438000
     6  H          0.72688600       0.82465000       0.60562000
     7  H          0.72688600       0.67535000       0.10562000
     8  H          0.27311400       0.17535000       0.39438000
     9  B          0.13693000       0.33291110       0.73072000
    10  B          0.86307000       0.83291110       0.76928000
    11  B          0.86307000       0.66708890       0.26928000
    12  B          0.13693000       0.16708890       0.23072000
    13  H          0.02000000       0.32630000       0.74870000
    14  H          0.98000000       0.82630000       0.75130000
    15  H          0.98000000       0.67370000       0.25130000
    16  H          0.02000000       0.17370000       0.24870000
    17  B          0.26603000       0.27508120       0.73702000
    18  B          0.73397000       0.77508120       0.76298000
    19  B          0.73397000       0.72491880       0.26298000
    20  B          0.26603000       0.22491880       0.23702000
    21  H          0.23440000       0.23050000       0.75900000
    22  H          0.76560000       0.73050000       0.74100000
    23  H          0.76560000       0.76950000       0.24100000
    24  H          0.23440000       0.26950000       0.25900000
    25  B          0.44473000       0.30398120       0.77902000
    26  B          0.55527000       0.80398120       0.72098000
    27  B          0.55527000       0.69601880       0.22098000
    28  B          0.44473000       0.19601880       0.27902000
    29  H          0.53060000       0.27830000       0.82860000
    30  H          0.46940000       0.77830000       0.67140000
    31  H          0.46940000       0.72170000       0.17140000
    32  H          0.53060000       0.22170000       0.32860000
    33  B          0.42413000       0.37906120       0.79922000
    34  B          0.57587000       0.87906120       0.70078000
    35  B          0.57587000       0.62093880       0.20078000
    36  B          0.42413000       0.12093880       0.29922000
    37  H          0.49630000       0.40260000       0.86220000
    38  H          0.50370000       0.90260000       0.63780000
    39  H          0.50370000       0.59740000       0.13780000
    40  H          0.49630000       0.09740000       0.36220000
    41  B          0.23383000       0.39674110       0.76902000
    42  B          0.76617000       0.89674110       0.73098000
    43  B          0.76617000       0.60325890       0.23098000
    44  B          0.23383000       0.10325890       0.26902000
    45  H          0.18100000       0.43200000       0.81220000
    46  H          0.81900000       0.93200000       0.68780000
    47  H          0.81900000       0.56800000       0.18780000
    48  H          0.18100000       0.06800000       0.31220000
    49  B          0.18243000       0.38183110       0.63242000
    50  B          0.81757000       0.88183110       0.86758000
    51  B          0.81757000       0.61816890       0.36758000
    52  B          0.18243000       0.11816890       0.13242000
    53  B          0.20183000       0.30660110       0.61252000
    54  B          0.79817000       0.80660110       0.88748000
    55  B          0.79817000       0.69339890       0.38748000
    56  B          0.20183000       0.19339890       0.11252000
    57  B          0.39333000       0.28881110       0.64322000
    58  B          0.60667000       0.78881110       0.85678000
    59  B          0.60667000       0.71118890       0.35678000
    60  B          0.39333000       0.21118890       0.14322000
    61  B          0.49143000       0.35337110       0.68122000
    62  B          0.50857000       0.85337110       0.81878000
    63  B          0.50857000       0.64662890       0.31878000
    64  B          0.49143000       0.14662890       0.18122000
    65  B          0.36103000       0.41093110       0.67522000
    66  B          0.63897000       0.91093110       0.82478000
    67  B          0.63897000       0.58906890       0.32478000
    68  B          0.36103000       0.08906890       0.17522000
    69  B          0.34163000       0.35483110       0.57782000
    70  B          0.65837000       0.85483110       0.92218000
    71  B          0.65837000       0.64516890       0.42218000
    72  B          0.34163000       0.14516890       0.07782000
    73  Br         0.03424300       0.42721711       0.54630200
    74  Br         0.96575700       0.92721711       0.95369800
    75  Br         0.96575700       0.57278289       0.45369800
    76  Br         0.03424300       0.07278289       0.04630200
    77  Br         0.07378300       0.26569510       0.50296719
    78  Br         0.92621700       0.76569510      -0.00296719
    79  Br         0.92621700       0.73430490       0.49703281
    80  Br         0.07378300       0.23430490       0.00296719
    81  Br         0.48772300       0.22607010       0.57309819
    82  Br         0.51227700       0.72607010       0.92690181
    83  Br         0.51227700       0.77392990       0.42690181
    84  Br         0.48772300       0.27392990       0.07309819
    85  Br         0.69515200       0.36519810       0.64993519
    86  Br         0.30484800       0.86519810       0.85006481
    87  Br         0.30484800       0.63480190       0.35006481
    88  Br         0.69515200       0.13480190       0.14993519
    89  Br         0.41365300       0.48925511       0.64000200
    90  Br         0.58634700       0.98925511       0.85999800
    91  Br         0.58634700       0.51074489       0.35999800
    92  Br         0.41365300       0.01074489       0.14000200
    93  Br         0.36954300       0.36818211       0.42940419
    94  Br         0.63045700       0.86818211       0.07059581
    95  Br         0.63045700       0.63181789       0.57059581
    96  Br         0.36954300       0.13181789       0.92940419
    97  N          0.00582000       0.38764900       0.27603170
    98  N         -0.00582000       0.88764900       0.22396830
    99  N         -0.00582000       0.61235100       0.72396830
   100  N          0.00582000       0.11235100       0.77603170
   101  H          0.05060000       0.38100000       0.34000000
   102  H          0.94940000       0.88100000       0.16000000
   103  H          0.94940000       0.61900000       0.66000000
   104  H          0.05060000       0.11900000       0.84000000
   105  P          0.84092700       0.35798300       0.24455500
   106  P          0.15907300       0.85798300       0.25544500
   107  P          0.15907300       0.64201700       0.75544500
   108  P          0.84092700       0.14201700       0.74455500
   109  N          0.75932000       0.38518100       0.14242180
   110  N          0.24068000       0.88518100       0.35757820
   111  N          0.24068000       0.61481900       0.85757820
   112  N          0.75932000       0.11481900       0.64242180
   113  P          0.83045700       0.42377300       0.05926500
   114  P          0.16954300       0.92377300       0.44073500
   115  P          0.16954300       0.57622700       0.94073500
   116  P          0.83045700       0.07622700       0.55926500
   117  N         -0.01338000       0.45047100       0.09812180
   118  N          0.01338000       0.95047100       0.40187820
   119  N          0.01338000       0.54952900       0.90187820
   120  N         -0.01338000       0.04952900       0.59812180
   121  P          0.09205700       0.42897300       0.19510500
   122  P          0.90794300       0.92897300       0.30489500
   123  P          0.90794300       0.57102700       0.80489500
   124  P          0.09205700       0.07102700       0.69510500
   125  Cl         0.73158700       0.36546300       0.36767600
   126  Cl         0.26841300       0.86546300       0.13232400
   127  Cl         0.26841300       0.63453700       0.63232400
   128  Cl         0.73158700       0.13453700       0.86767600
   129  Cl         0.86865700       0.27507300       0.22984500
   130  Cl         0.13134300       0.77507300       0.27015500
   131  Cl         0.13134300       0.72492700       0.77015500
   132  Cl         0.86865700       0.22492700       0.72984500
   133  Cl         0.69120700       0.48660300       0.01572600
   134  Cl         0.30879300       0.98660300       0.48427400
   135  Cl         0.30879300       0.51339700       0.98427400
   136  Cl         0.69120700       0.01339700       0.51572600
   137  Cl         0.84255900       0.38093300       0.92586400
   138  Cl         0.15744100       0.88093300       0.57413600
   139  Cl         0.15744100       0.61906700       0.07413600
   140  Cl         0.84255900       0.11906700       0.42586400
   141  Cl         0.18306700       0.49219300       0.27883500
   142  Cl         0.81693300       0.99219300       0.22116500
   143  Cl         0.81693300       0.50780700       0.72116500
   144  Cl         0.18306700       0.00780700       0.77883500
   145  Cl         0.25933700       0.38423300       0.15000500
   146  Cl         0.74066300       0.88423300       0.34999500
   147  Cl         0.74066300       0.61576700       0.84999500
   148  Cl         0.25933700       0.11576700       0.65000500
