data_VEXQOE
_symmetry_space_group_name_H-M    'P1'
_symmetry_Int_Tables_number       1
loop_
_symmetry_equiv_pos_site_id
_symmetry_equiv_pos_as_xyz
1 x,y,z
_cell_length_a                   4.3201
_cell_length_b                   9.2021
_cell_length_c                   11.702
_cell_angle_alpha                78.751
_cell_angle_beta                 82.642
_cell_angle_gamma                86.361
loop_
_atom_site_label
_atom_site_type_symbol
_atom_site_fract_x
_atom_site_fract_y
_atom_site_fract_z
     1  N          0.19523000       0.16132140       0.03462120
     2  N          0.80477000       0.83867860       0.96537880
     3  O          0.25273000       0.39847120       0.93880900
     4  O          0.74727000       0.60152880       0.06119100
     5  O          0.72723000       0.23238130       0.26688110
     6  O          0.27277000       0.76761870       0.73311890
     7  N          0.48243000       0.31932000       0.10556120
     8  N          0.51757000       0.68068000       0.89443880
     9  O          0.17623000       0.91947880       0.12350100
    10  O          0.82377000       0.08052120       0.87649900
    11  N          0.44403000       0.07383140       0.20012120
    12  N          0.55597000       0.92616860       0.79987880
    13  C          0.30754000       0.30042000       0.02079140
    14  C          0.69246000       0.69958000       0.97920860
    15  C          0.56104000       0.21012000       0.19658140
    16  C          0.43896000       0.78988000       0.80341860
    17  C          0.26634000       0.04412000       0.12031140
    18  C          0.73366000       0.95588000       0.87968860
    19  H          0.08534500       0.14101900       0.97998300
    20  H          0.91465500       0.85898100       0.02001700
    21  H          0.56064800       0.40722500       0.09671700
    22  H          0.43935200       0.59277500       0.90328300
    23  H          0.50364700      -0.01002400       0.26291800
    24  H          0.49635300       0.01002400       0.73708200
    25  C          0.07584000       0.43032000       0.52982870
    26  C          0.92416000       0.56968000       0.47017130
    27  N          0.35943000       0.16705150       0.64164870
    28  N          0.64057000       0.83294850       0.35835130
    29  C          0.08675000       0.30022000       0.48648000
    30  C          0.91325000       0.69978000       0.51352000
    31  C          0.21505000       0.42312000       0.63086850
    32  C          0.78495000       0.57688000       0.36913150
    33  C          0.35175000       0.29192000       0.68258000
    34  C          0.64825000       0.70808000       0.31742000
    35  C          0.22625000       0.17352000       0.54468000
    36  C          0.77375000       0.82648000       0.45532000
    37  H          0.45414800       0.28722200       0.74908100
    38  H          0.54585200       0.71277800       0.25091900
    39  H          0.22064900       0.50782400       0.66568100
    40  H          0.77935100       0.49217600       0.33431900
    41  H          0.22735200       0.08322400       0.51618100
    42  H          0.77264800       0.91677600       0.48381900
    43  H         -0.00835300       0.29532400       0.41708000
    44  H          0.00835300       0.70467600       0.58292000
