data_VEXVEC
_symmetry_space_group_name_H-M    'P1'
_symmetry_Int_Tables_number       1
loop_
_symmetry_equiv_pos_site_id
_symmetry_equiv_pos_as_xyz
1 x,y,z
_cell_length_a                   15.81465
_cell_length_b                   8.11283
_cell_length_c                   26.00329
_cell_angle_alpha                90.0
_cell_angle_beta                 93.0233
_cell_angle_gamma                90.0
loop_
_atom_site_label
_atom_site_type_symbol
_atom_site_fract_x
_atom_site_fract_y
_atom_site_fract_z
     1  Cl         0.62524600       0.14594120       0.39379400
     2  Cl         0.87475400       0.64594120       0.10620600
     3  Cl         0.37475400       0.85405880       0.60620600
     4  Cl         0.12524600       0.35405880       0.89379400
     5  Cl         0.69569600       0.83459880       0.55590400
     6  Cl         0.80430400       0.33459880       0.94409600
     7  Cl         0.30430400       0.16540120       0.44409600
     8  Cl         0.19569600       0.66540120       0.05590400
     9  Cl         0.61566600       0.88177120       0.30840300
    10  Cl         0.88433400       0.38177120       0.19159700
    11  Cl         0.38433400       0.11822880       0.69159700
    12  Cl         0.11566600       0.61822880       0.80840300
    13  Cl         0.78588600       0.10714130       0.62019400
    14  Cl         0.71411400       0.60714130       0.87980600
    15  Cl         0.21411400       0.89285870       0.37980600
    16  Cl         0.28588600       0.39285870       0.12019400
    17  Cl         0.82128600       0.39941130       0.37517400
    18  Cl         0.67871400       0.89941130       0.12482600
    19  Cl         0.17871400       0.60058870       0.62482600
    20  Cl         0.32128600       0.10058870       0.87517400
    21  Cl         0.89388600       0.53122130       0.48211400
    22  Cl         0.60611400       0.03122130       0.01788600
    23  Cl         0.10611400       0.46877870       0.51788600
    24  Cl         0.39388600       0.96877870       0.98211400
    25  N          0.54552000       0.70666000       0.60209130
    26  N          0.95448000       0.20666000       0.89790870
    27  N          0.45448000       0.29334000       0.39790870
    28  N          0.04552000       0.79334000       0.10209130
    29  H          0.52020000       0.63240000       0.58200000
    30  H          0.97980000       0.13240000       0.91800000
    31  H          0.47980000       0.36760000       0.41800000
    32  H          0.02020000       0.86760000       0.08200000
    33  N          0.75812000       0.65654000       0.30327130
    34  N          0.74188000       0.15654000       0.19672870
    35  N          0.24188000       0.34346000       0.69672870
    36  N          0.25812000       0.84346000       0.80327130
    37  H          0.74810000       0.57080000       0.28310000
    38  H          0.75190000       0.07080000       0.21690000
    39  H          0.25190000       0.42920000       0.71690000
    40  H          0.24810000       0.92920000       0.78310000
    41  N          0.91022000       0.31345000       0.57164130
    42  N          0.58978000       0.81345000       0.92835870
    43  N          0.08978000       0.68655000       0.42835870
    44  N          0.41022000       0.18655000       0.07164130
    45  H          0.95280000       0.25380000       0.56160000
    46  H          0.54720000       0.75380000       0.93840000
    47  H          0.04720000       0.74620000       0.43840000
    48  H          0.45280000       0.24620000       0.06160000
    49  C          0.61102000       0.95745000       0.57076140
    50  C          0.88898000       0.45745000       0.92923860
    51  C          0.38898000       0.04255000       0.42923860
    52  C          0.11102000       0.54255000       0.07076140
    53  C          0.76342000       0.21295000       0.56332150
    54  C          0.73658000       0.71295000       0.93667850
    55  C          0.23658000       0.78705000       0.43667850
    56  C          0.26342000       0.28705000       0.06332150
    57  C          0.54002000       0.86675000       0.41699140
    58  C          0.95998000       0.36675000       0.08300860
    59  C          0.45998000       0.13325000       0.58300860
    60  C          0.04002000       0.63325000       0.91699140
    61  C          0.68022000       0.22255000       0.54160140
    62  C          0.81978000       0.72255000       0.95839860
    63  C          0.31978000       0.77745000       0.45839860
    64  C          0.18022000       0.27745000       0.04160140
    65  C          0.56592000       0.56885000       0.47232130
    66  C          0.93408000       0.06885000       0.02767870
    67  C          0.43408000       0.43115000       0.52767870
    68  C          0.06592000       0.93115000       0.97232130
    69  C          0.48562000       0.64395000       0.47019140
    70  C          0.01438000       0.14395000       0.02980860
    71  C          0.51438000       0.35605000       0.52980860
    72  C          0.98562000       0.85605000       0.97019140
    73  C          0.59272000       0.65755000       0.64834150
    74  C          0.90728000       0.15755000       0.85165850
    75  C          0.40728000       0.34245000       0.35165850
    76  C          0.09272000       0.84245000       0.14834150
    77  C          0.47102000       0.79415000       0.44215130
    78  C          0.02898000       0.29415000       0.05784870
    79  C          0.52898000       0.20585000       0.55784870
    80  C          0.97102000       0.70585000       0.94215130
    81  C          0.57972000       0.42215000       0.50121130
    82  C          0.92028000       0.92215000      -0.00121130
    83  C          0.42028000       0.57785000       0.49878870
    84  C          0.07972000       0.07785000       0.00121130
    85  C          0.65482000       0.76635000       0.36010140
    86  C          0.84518000       0.26635000       0.13989860
    87  C          0.34518000       0.23365000       0.63989860
    88  C          0.15482000       0.73365000       0.86010140
    89  C          0.80932000       0.78275000       0.28556150
    90  C          0.69068000       0.28275000       0.21443850
    91  C          0.19068000       0.21725000       0.71443850
    92  C          0.30932000       0.71725000       0.78556150
    93  C          0.53432000       0.03495000       0.40571140
    94  C          0.96568000       0.53495000       0.09428860
    95  C          0.46568000       0.96505000       0.59428860
    96  C          0.03432000       0.46505000       0.90571140
    97  C          0.66352000       0.35125000       0.50628140
    98  C          0.83648000       0.85125000       0.99371860
    99  C          0.33648000       0.64875000       0.49371860
   100  C          0.16352000       0.14875000       0.00628140
   101  C          0.60862000       0.12575000       0.55801140
   102  C          0.89138000       0.62575000       0.94198860
   103  C          0.39138000       0.87425000       0.44198860
   104  C          0.10862000       0.37425000       0.05801140
   105  C          0.81232000       0.40785000       0.50158150
   106  C          0.68768000       0.90785000      -0.00158150
   107  C          0.18768000       0.59215000       0.49841850
   108  C          0.31232000       0.09215000       0.00158150
   109  C          0.61142000       0.76005000       0.40581140
   110  C          0.88858000       0.26005000       0.09418860
   111  C          0.38858000       0.23995000       0.59418860
   112  C          0.11142000       0.73995000       0.90581140
   113  C          0.74722000       0.54655000       0.39025150
   114  C          0.75278000       0.04655000       0.10974850
   115  C          0.25278000       0.45345000       0.60974850
   116  C          0.24722000       0.95345000       0.89025150
   117  C          0.72182000       0.65875000       0.35148150
   118  C          0.77818000       0.15875000       0.14851850
   119  C          0.27818000       0.34125000       0.64851850
   120  C          0.22182000       0.84125000       0.85148150
   121  C          0.72982000       0.42775000       0.47946140
   122  C          0.77018000       0.92775000       0.02053860
   123  C          0.27018000       0.57225000       0.52053860
   124  C          0.22982000       0.07225000       0.97946140
   125  C          0.62952000       0.62645000       0.43960140
   126  C          0.87048000       0.12645000       0.06039860
   127  C          0.37048000       0.37355000       0.56039860
   128  C          0.12952000       0.87355000       0.93960140
   129  C          0.82902000       0.30855000       0.54477150
   130  C          0.67098000       0.80855000       0.95522850
   131  C          0.17098000       0.69145000       0.45522850
   132  C          0.32902000       0.19145000       0.04477150
   133  C          0.54033000       0.87485000       0.58943150
   134  C          0.95967000       0.37485000       0.91056850
   135  C          0.45967000       0.12515000       0.41056850
   136  C          0.04033000       0.62515000       0.08943150
   137  C          0.70542000       0.53445000       0.43628150
   138  C          0.79458000       0.03445000       0.06371850
   139  C          0.29458000       0.46555000       0.56371850
   140  C          0.20542000       0.96555000       0.93628150
   141  C          0.61643000       0.49394000       0.65387160
   142  C          0.88357000      -0.00606000       0.84612840
   143  C          0.38357000       0.50606000       0.34612840
   144  C          0.11643000       0.00606000       0.15387160
   145  H          0.60350000       0.41790000       0.62680000
   146  H          0.89650000       0.91790000       0.87320000
   147  H          0.39650000       0.58210000       0.37320000
   148  H          0.10350000       0.08210000       0.12680000
   149  C          0.61093000       0.76874000       0.68825160
   150  C          0.88907000       0.26874000       0.81174840
   151  C          0.38907000       0.23126000       0.31174840
   152  C          0.11093000       0.73126000       0.18825160
   153  H          0.59440000       0.88100000       0.68470000
   154  H          0.90560000       0.38100000       0.81530000
   155  H          0.40560000       0.11900000       0.31530000
   156  H          0.09440000       0.61900000       0.18470000
   157  C          0.83803000       0.77255000       0.23583160
   158  C          0.66197000       0.27255000       0.26416840
   159  C          0.16197000       0.22745000       0.76416840
   160  C          0.33803000       0.72745000       0.73583160
   161  H          0.81630000       0.68990000       0.21280000
   162  H          0.68370000       0.18990000       0.28720000
   163  H          0.18370000       0.31010000       0.78720000
   164  H          0.31630000       0.81010000       0.71280000
   165  C          0.91902000       0.41795000       0.61488160
   166  C          0.58098000       0.91795000       0.88511840
   167  C          0.08098000       0.58205000       0.38511840
   168  C          0.41902000       0.08205000       0.11488160
   169  C          0.89433000       0.02786000       0.29950180
   170  C          0.60567000       0.52786000       0.20049820
   171  C          0.10567000       0.97214000       0.70049820
   172  C          0.39433000       0.47214000       0.79950180
   173  H          0.91120000       0.11890000       0.32060000
   174  H          0.58880000       0.61890000       0.17940000
   175  H          0.08880000       0.88110000       0.67940000
   176  H          0.41120000       0.38110000       0.82060000
   177  C          0.83633000       0.91516000       0.31681160
   178  C          0.66367000       0.41516000       0.18318840
   179  C          0.16367000       0.08484000       0.68318840
   180  C          0.33633000       0.58484000       0.81681160
   181  H          0.81470000       0.92790000       0.35000000
   182  H          0.68530000       0.42790000       0.15000000
   183  H          0.18530000       0.07210000       0.65000000
   184  H          0.31470000       0.57210000       0.85000000
   185  C          0.86393000       0.54766000       0.62257180
   186  C          0.63607000       0.04766000       0.87742820
   187  C          0.13607000       0.45234000       0.37742820
   188  C          0.36393000       0.95234000       0.12257180
   189  H          0.81870000       0.56890000       0.59790000
   190  H          0.68130000       0.06890000       0.90210000
   191  H          0.18130000       0.43110000       0.40210000
   192  H          0.31870000       0.93110000       0.09790000
   193  C          0.65853000       0.44144000       0.69854170
   194  C          0.84147000       0.94144000       0.80145830
   195  C          0.34147000       0.55856000       0.30145830
   196  C          0.15853000       0.05856000       0.19854170
   197  H          0.67500000       0.32930000       0.70210000
   198  H          0.82500000       0.82930000       0.79790000
   199  H          0.32500000       0.67070000       0.29790000
   200  H          0.17500000       0.17070000       0.20210000
   201  C          0.89843000       0.88366000       0.22004180
   202  C          0.60157000       0.38366000       0.27995820
   203  C          0.10157000       0.11634000       0.77995820
   204  C          0.39843000       0.61634000       0.72004180
   205  H          0.91950000       0.87270000       0.18670000
   206  H          0.58050000       0.37270000       0.31330000
   207  H          0.08050000       0.12730000       0.81330000
   208  H          0.41950000       0.62730000       0.68670000
   209  C          0.67713000       0.55084000       0.73822180
   210  C          0.82287000       0.05084000       0.76177820
   211  C          0.32287000       0.44916000       0.26177820
   212  C          0.17713000       0.94916000       0.23822180
   213  H          0.70620000       0.51400000       0.76900000
   214  H          0.79380000       0.01400000       0.73100000
   215  H          0.29380000       0.48600000       0.23100000
   216  H          0.20620000      -0.01400000       0.26900000
   217  C          0.92793000       0.00866000       0.25160180
   218  C          0.57207000       0.50866000       0.24839820
   219  C          0.07207000      -0.00866000       0.74839820
   220  C          0.42793000       0.49134000       0.75160180
   221  H          0.97080000       0.08100000       0.24090000
   222  H          0.52920000       0.58100000       0.25910000
   223  H          0.02920000       0.91900000       0.75910000
   224  H          0.47080000       0.41900000       0.74090000
   225  C          0.98503000       0.39036000       0.65123180
   226  C          0.51497000       0.89036000       0.84876820
   227  C          0.01497000       0.60964000       0.34876820
   228  C          0.48503000       0.10964000       0.15123180
   229  H          0.02390000       0.30320000       0.64630000
   230  H          0.47610000       0.80320000       0.85370000
   231  H          0.97610000       0.69680000       0.35370000
   232  H          0.52390000       0.19680000       0.14630000
   233  C          0.87433000       0.64616000       0.66592000
   234  C          0.62567000       0.14616000       0.83408000
   235  C          0.12567000       0.35384000       0.33408000
   236  C          0.37433000       0.85384000       0.16592000
   237  H          0.83610000       0.73440000       0.67080000
   238  H          0.66390000       0.23440000       0.82920000
   239  H          0.16390000       0.26560000       0.32920000
   240  H          0.33610000       0.76560000       0.17080000
   241  C          0.65323000       0.71464000       0.73313180
   242  C          0.84677000       0.21464000       0.76686820
   243  C          0.34677000       0.28536000       0.26686820
   244  C          0.15323000       0.78536000       0.23313180
   245  H          0.66580000       0.79000000       0.76050000
   246  H          0.83420000       0.29000000       0.73950000
   247  H          0.33420000       0.21000000       0.23950000
   248  H          0.16580000       0.71000000       0.26050000
   249  C          0.94003000       0.61677000       0.70212000
   250  C          0.55997000       0.11677000       0.79788000
   251  C          0.05997000       0.38323000       0.29788000
   252  C          0.44003000       0.88323000       0.20212000
   253  H          0.94740000       0.68420000       0.73190000
   254  H          0.55260000       0.18420000       0.76810000
   255  H          0.05260000       0.31580000       0.26810000
   256  H          0.44740000       0.81580000       0.23190000
   257  C         -0.00557000       0.48747000       0.69412190
   258  C          0.50557000      -0.01253000       0.80587810
   259  C          0.00557000       0.51253000       0.30587810
   260  C          0.49443000       0.01253000       0.19412190
   261  H          0.03930000       0.46530000       0.71890000
   262  H          0.46070000       0.96530000       0.78110000
   263  H          0.96070000       0.53470000       0.28110000
   264  H          0.53930000       0.03470000       0.21890000
   265  S          0.83202900       0.96267810       0.46019500
   266  S          0.66797100       0.46267810       0.03980500
   267  S          0.16797100       0.03732190       0.53980500
   268  S          0.33202900       0.53732190       0.96019500
   269  S         -0.00140100       0.13242000       0.43177600
   270  S          0.50140100       0.63242000       0.06822400
   271  S          0.00140100       0.86758000       0.56822400
   272  S          0.49859900       0.36758000       0.93177600
   273  C          0.91573000       0.04627000       0.44622000
   274  C          0.58427000       0.54627000       0.05378000
   275  C          0.08427000       0.95373000       0.55378000
   276  C          0.41573000       0.45373000       0.94622000
