data_VEYGAH
_symmetry_space_group_name_H-M    'P1'
_symmetry_Int_Tables_number       1
loop_
_symmetry_equiv_pos_site_id
_symmetry_equiv_pos_as_xyz
1 x,y,z
_cell_length_a                   13.5055
_cell_length_b                   12.9344
_cell_length_c                   12.5264
_cell_angle_alpha                90.0
_cell_angle_beta                 90.0
_cell_angle_gamma                52.305
loop_
_atom_site_label
_atom_site_type_symbol
_atom_site_fract_x
_atom_site_fract_y
_atom_site_fract_z
     1  Cl         0.56482000       0.97568000       0.65112000
     2  Cl         0.93518000       0.02432000       0.15112000
     3  Cl         0.43518000       0.02432000       0.34888000
     4  Cl         0.06482000       0.97568000       0.84888000
     5  O          0.39544000       0.02414000       0.85183000
     6  O          0.10456000       0.97586000       0.35183000
     7  O          0.60456000       0.97586000       0.14817000
     8  O          0.89544000       0.02414000       0.64817000
     9  O          0.25694000       0.43704000       0.97544000
    10  O          0.24306000       0.56296000       0.47544000
    11  O          0.74306000       0.56296000       0.02456000
    12  O          0.75694000       0.43704000       0.52456000
    13  N          0.02174000       0.20954000       0.27394000
    14  N          0.47826000       0.79046000       0.77394000
    15  N          0.97826000       0.79046000       0.72606000
    16  N          0.52174000       0.20954000       0.22606000
    17  C          0.37875000       0.12965000       0.86434000
    18  C          0.12125000       0.87035000       0.36434000
    19  C          0.62125000       0.87035000       0.13566000
    20  C          0.87875000       0.12965000       0.63566000
    21  C          0.43395000       0.17575000       0.79354000
    22  C          0.06605000       0.82425000       0.29354000
    23  C          0.56605000       0.82425000       0.20646000
    24  C          0.93395000       0.17575000       0.70646000
    25  C          0.51066000       0.12356000       0.70385000
    26  C          0.98934000       0.87644000       0.20385000
    27  C          0.48934000       0.87644000       0.29615000
    28  C          0.01066000       0.12356000       0.79615000
    29  C          0.54206000       0.19607000       0.65325000
    30  C          0.95794000       0.80393000       0.15325000
    31  C          0.45794000       0.80393000       0.34675000
    32  C          0.04206000       0.19607000       0.84675000
    33  C          0.49867000       0.31998000       0.69146000
    34  C          0.00133000       0.68002000       0.19146000
    35  C          0.50133000       0.68002000       0.30854000
    36  C         -0.00133000       0.31998000       0.80854000
    37  C          0.42206000       0.37628000       0.78015000
    38  C          0.07794000       0.62372000       0.28015000
    39  C          0.57794000       0.62372000       0.21985000
    40  C          0.92206000       0.37628000       0.71985000
    41  C          0.39175000       0.29806000       0.82944000
    42  C          0.10825000       0.70194000       0.32944000
    43  C          0.60825000       0.70194000       0.17056000
    44  C          0.89175000       0.29806000       0.67056000
    45  C          0.30825000       0.33346000       0.92515000
    46  C          0.19175000       0.66654000       0.42515000
    47  C          0.69175000       0.66654000       0.07485000
    48  C          0.80825000       0.33346000       0.57485000
    49  C          0.30525000       0.22575000       0.94354000
    50  C          0.19475000       0.77425000       0.44354000
    51  C          0.69475000       0.77425000       0.05646000
    52  C          0.80525000       0.22575000       0.55646000
    53  C          0.23445000       0.22155000       0.02844000
    54  C          0.26555000       0.77845000       0.52844000
    55  C          0.76555000       0.77845000       0.97156000
    56  C          0.73445000       0.22155000       0.47156000
    57  C          0.12955000       0.33635000       0.07474000
    58  C          0.37045000       0.66365000       0.57474000
    59  C          0.87045000       0.66365000       0.92526000
    60  C          0.62955000       0.33635000       0.42526000
    61  C          0.05835000       0.33525000       0.15205000
    62  C          0.44165000       0.66475000       0.65205000
    63  C          0.94165000       0.66475000       0.84795000
    64  C          0.55835000       0.33525000       0.34795000
    65  C          0.09285000       0.21576000       0.18564000
    66  C          0.40715000       0.78424000       0.68564000
    67  C          0.90715000       0.78424000       0.81436000
    68  C          0.59285000       0.21576000       0.31436000
    69  C          0.19585000       0.10035000       0.14674000
    70  C          0.30415000       0.89965000       0.64674000
    71  C          0.80415000       0.89965000       0.85326000
    72  C          0.69585000       0.10035000       0.35326000
    73  C          0.26675000       0.10295000       0.06664000
    74  C          0.23325000       0.89705000       0.56664000
    75  C          0.73325000       0.89705000       0.93336000
    76  C          0.76675000       0.10295000       0.43336000
    77  C          0.05576000       0.23336000       0.38054000
    78  C          0.44424000       0.76664000       0.88054000
    79  C          0.94424000       0.76664000       0.61946000
    80  C          0.55576000       0.23336000       0.11946000
    81  C          0.88214000       0.30307000       0.25666000
    82  C          0.61786000       0.69693000       0.75666000
    83  C          0.11786000       0.69693000       0.74334000
    84  C          0.38214000       0.30307000       0.24334000
    85  H          0.40440000       0.47270000       0.79960000
    86  H          0.09560000       0.52730000       0.29960000
    87  H          0.59560000       0.52730000       0.20040000
    88  H          0.90440000       0.47270000       0.70040000
    89  H          0.03420000       0.33510000       0.37980000
    90  H          0.46580000       0.66490000       0.87980000
    91  H          0.96580000       0.66490000       0.62020000
    92  H          0.53420000       0.33510000       0.12020000
    93  H          0.99670000       0.24780000       0.42720000
    94  H          0.50330000       0.75220000       0.92720000
    95  H          0.00330000       0.75220000       0.57280000
    96  H          0.49670000       0.24780000       0.07280000
    97  H          0.23280000       0.01220000       0.17670000
    98  H          0.26720000      -0.01220000       0.67670000
    99  H          0.76720000      -0.01220000       0.82330000
   100  H          0.73280000       0.01220000       0.32330000
   101  H          0.84160000       0.28790000       0.32010000
   102  H          0.65840000       0.71210000       0.82010000
   103  H          0.15840000       0.71210000       0.67990000
   104  H          0.34160000       0.28790000       0.17990000
   105  H          0.86670000       0.40510000       0.27610000
   106  H          0.63330000       0.59490000       0.77610000
   107  H          0.13330000       0.59490000       0.72390000
   108  H          0.36670000       0.40510000       0.22390000
   109  H          0.33680000       0.01420000       0.02970000
   110  H          0.16320000       0.98580000       0.52970000
   111  H          0.66320000       0.98580000       0.97030000
   112  H          0.83680000       0.01420000       0.47030000
   113  H          0.10430000       0.42090000       0.05090000
   114  H          0.39570000       0.57910000       0.55090000
   115  H          0.89570000       0.57910000       0.94910000
   116  H          0.60430000       0.42090000       0.44910000
   117  H          0.99050000       0.42500000       0.18940000
   118  H          0.50950000       0.57500000       0.68940000
   119  H          0.00950000       0.57500000       0.81060000
   120  H          0.49050000       0.42500000       0.31060000
   121  H          0.04760000       0.12500000       0.27320000
   122  H          0.45240000       0.87500000       0.77320000
   123  H          0.95240000       0.87500000       0.72680000
   124  H          0.54760000       0.12500000       0.22680000
   125  H          0.85800000       0.29100000       0.17700000
   126  H          0.64200000       0.70900000       0.67700000
   127  H          0.14200000       0.70900000       0.82300000
   128  H          0.35800000       0.29100000       0.32300000
   129  H          0.53500000       0.34300000       0.62400000
   130  H          0.96500000       0.65700000       0.12400000
   131  H          0.46500000       0.65700000       0.37600000
   132  H          0.03500000       0.34300000       0.87600000
   133  H          0.59800000       0.17230000       0.58890000
   134  H          0.90200000       0.82770000       0.08890000
   135  H          0.40200000       0.82770000       0.41110000
   136  H          0.09800000       0.17230000       0.91110000
   137  H          0.14250000       0.16530000       0.39480000
   138  H          0.35750000       0.83470000       0.89480000
   139  H          0.85750000       0.83470000       0.60520000
   140  H          0.64250000       0.16530000       0.10520000
   141  O          0.75505000       0.63855000       0.50574000
   142  O          0.74495000       0.36145000       0.00574000
   143  O          0.24495000       0.36145000       0.49426000
   144  O          0.25505000       0.63855000      -0.00574000
   145  O          0.85814000       0.55795000       0.35545000
   146  O          0.64186000       0.44205000       0.85545000
   147  O          0.14186000       0.44205000       0.64455000
   148  O          0.35814000       0.55795000       0.14455000
   149  C          0.80164000       0.64806000       0.41875000
   150  C          0.69836000       0.35194000       0.91875000
   151  C          0.19836000       0.35194000       0.58125000
   152  C          0.30164000       0.64806000       0.08125000
   153  C          0.77914000       0.77326000       0.40236000
   154  C          0.72086000       0.22674000       0.90236000
   155  C          0.22086000       0.22674000       0.59764000
   156  C          0.27914000       0.77326000       0.09764000
   157  H          0.70940000       0.84210000       0.45770000
   158  H          0.79060000       0.15790000       0.95770000
   159  H          0.29060000       0.15790000       0.54230000
   160  H          0.20940000       0.84210000       0.04230000
   161  H          0.77900000       0.80900000       0.32500000
   162  H          0.72100000       0.19100000       0.82500000
   163  H          0.22100000       0.19100000       0.67500000
   164  H          0.27900000       0.80900000       0.17500000
   165  H          0.87300000       0.75700000       0.43200000
   166  H          0.62700000       0.24300000       0.93200000
   167  H          0.12700000       0.24300000       0.56800000
   168  H          0.37300000       0.75700000       0.06800000
