data_VIFKUR
_symmetry_space_group_name_H-M    'P1'
_symmetry_Int_Tables_number       1
loop_
_symmetry_equiv_pos_site_id
_symmetry_equiv_pos_as_xyz
1 x,y,z
_cell_length_a                   14.36181
_cell_length_b                   7.54726
_cell_length_c                   18.992214
_cell_angle_alpha                90.0
_cell_angle_beta                 91.8384
_cell_angle_gamma                90.0
loop_
_atom_site_label
_atom_site_type_symbol
_atom_site_fract_x
_atom_site_fract_y
_atom_site_fract_z
     1  N          0.62125100       0.10005190       0.57897600
     2  N          0.12125100       0.60005190       0.57897600
     3  N          0.37874900       0.10005190       0.92102400
     4  N          0.87874900       0.60005190       0.92102400
     5  N          0.37874900       0.89994810       0.42102400
     6  N          0.87874900       0.39994810       0.42102400
     7  N          0.62125100       0.89994810       0.07897600
     8  N          0.12125100       0.39994810       0.07897600
     9  N          0.60730800       0.02640170       0.69517500
    10  N          0.10730800       0.52640170       0.69517500
    11  N          0.39269200       0.02640170       0.80482500
    12  N          0.89269200       0.52640170       0.80482500
    13  N          0.39269200       0.97359830       0.30482500
    14  N          0.89269200       0.47359830       0.30482500
    15  N          0.60730800       0.97359830       0.19517500
    16  N          0.10730800       0.47359830       0.19517500
    17  N          0.74883800       0.97765830       0.63457500
    18  N          0.24883800       0.47765830       0.63457500
    19  N          0.25116200       0.97765830       0.86542500
    20  N          0.75116200       0.47765830       0.86542500
    21  N          0.25116200       0.02234170       0.36542500
    22  N          0.75116200       0.52234170       0.36542500
    23  N          0.74883800       0.02234170       0.13457500
    24  N          0.24883800       0.52234170       0.13457500
    25  N          0.74110900       0.90770820       0.75645600
    26  N          0.24110900       0.40770820       0.75645600
    27  N          0.25889100       0.90770820       0.74354400
    28  N          0.75889100       0.40770820       0.74354400
    29  N          0.25889100       0.09229180       0.24354400
    30  N          0.75889100       0.59229180       0.24354400
    31  N          0.74110900       0.09229180       0.25645600
    32  N          0.24110900       0.59229180       0.25645600
    33  C          0.78617100       0.92088000       0.69583700
    34  C          0.28617100       0.42088000       0.69583700
    35  C          0.21382900       0.92088000       0.80416300
    36  C          0.71382900       0.42088000       0.80416300
    37  C          0.21382900       0.07912000       0.30416300
    38  C          0.71382900       0.57912000       0.30416300
    39  C          0.78617100       0.07912000       0.19583700
    40  C          0.28617100       0.57912000       0.19583700
    41  N          0.87671900       0.87508000       0.69773700
    42  N          0.37671900       0.37508000       0.69773700
    43  N          0.12328100       0.87508000       0.80226300
    44  N          0.62328100       0.37508000       0.80226300
    45  N          0.12328100       0.12492000       0.30226300
    46  N          0.62328100       0.62492000       0.30226300
    47  N          0.87671900       0.12492000       0.19773700
    48  N          0.37671900       0.62492000       0.19773700
    49  N          0.60201110       0.93538000       0.81015700
    50  N          0.10201110       0.43538000       0.81015700
    51  N          0.39798890       0.93538000       0.68984300
    52  N          0.89798890       0.43538000       0.68984300
    53  N          0.39798890       0.06462000       0.18984300
    54  N          0.89798890       0.56462000       0.18984300
    55  N          0.60201110       0.06462000       0.31015700
    56  N          0.10201110       0.56462000       0.31015700
    57  C          0.66003100       0.03432000       0.63746700
    58  C          0.16003100       0.53432000       0.63746700
    59  C          0.33996900       0.03432000       0.86253300
    60  C          0.83996900       0.53432000       0.86253300
    61  C          0.33996900       0.96568000       0.36253300
    62  C          0.83996900       0.46568000       0.36253300
    63  C          0.66003100       0.96568000       0.13746700
    64  C          0.16003100       0.46568000       0.13746700
    65  C          0.65100100       0.95738000       0.75231700
    66  C          0.15100100       0.45738000       0.75231700
    67  C          0.34899900       0.95738000       0.74768300
    68  C          0.84899900       0.45738000       0.74768300
    69  C          0.34899900       0.04262000       0.24768300
    70  C          0.84899900       0.54262000       0.24768300
    71  C          0.65100100       0.04262000       0.25231700
    72  C          0.15100100       0.54262000       0.25231700
    73  H          0.90271200       0.85780000       0.65669000
    74  H          0.40271200       0.35780000       0.65669000
    75  H          0.09728800       0.85780000       0.84331000
    76  H          0.59728800       0.35780000       0.84331000
    77  H          0.09728800       0.14220000       0.34331000
    78  H          0.59728800       0.64220000       0.34331000
    79  H          0.90271200       0.14220000       0.15669000
    80  H          0.40271200       0.64220000       0.15669000
    81  H          0.65481200       0.10720000       0.54109000
    82  H          0.15481200       0.60720000       0.54109000
    83  H          0.34518800       0.10720000       0.95891000
    84  H          0.84518800       0.60720000       0.95891000
    85  H          0.34518800       0.89280000       0.45891000
    86  H          0.84518800       0.39280000       0.45891000
    87  H          0.65481200       0.89280000       0.04109000
    88  H          0.15481200       0.39280000       0.04109000
    89  H          0.56361300       0.14320000       0.57998000
    90  H          0.06361300       0.64320000       0.57998000
    91  H          0.43638700       0.14320000       0.92002000
    92  H          0.93638700       0.64320000       0.92002000
    93  H          0.43638700       0.85680000       0.42002000
    94  H          0.93638700       0.35680000       0.42002000
    95  H          0.56361300       0.85680000       0.07998000
    96  H          0.06361300       0.35680000       0.07998000
    97  H          0.54881400       0.97080000       0.80989000
    98  H          0.04881400       0.47080000       0.80989000
    99  H          0.45118600       0.97080000       0.69011000
   100  H          0.95118600       0.47080000       0.69011000
   101  H          0.45118600       0.02920000       0.19011000
   102  H          0.95118600       0.52920000       0.19011000
   103  H          0.54881400       0.02920000       0.30989000
   104  H          0.04881400       0.52920000       0.30989000
   105  H          0.89571200       0.80980000       0.73309000
   106  H          0.39571200       0.30980000       0.73309000
   107  H          0.10428800       0.80980000       0.76691000
   108  H          0.60428800       0.30980000       0.76691000
   109  H          0.10428800       0.19020000       0.26691000
   110  H          0.60428800       0.69020000       0.26691000
   111  H          0.89571200       0.19020000       0.23309000
   112  H          0.39571200       0.69020000       0.23309000
   113  H          0.63281300       0.90480000       0.84901000
   114  H          0.13281300       0.40480000       0.84901000
   115  H          0.36718700       0.90480000       0.65099000
   116  H          0.86718700       0.40480000       0.65099000
   117  H          0.36718700       0.09520000       0.15099000
   118  H          0.86718700       0.59520000       0.15099000
   119  H          0.63281300       0.09520000       0.34901000
   120  H          0.13281300       0.59520000       0.34901000
   121  N          0.83417800       0.92889820       0.50092600
   122  N          0.33417800       0.42889820       0.50092600
   123  N          0.16582200       0.92889820      -0.00092600
   124  N          0.66582200       0.42889820      -0.00092600
   125  N          0.16582200       0.07110180       0.49907400
   126  N          0.66582200       0.57110180       0.49907400
   127  N          0.83417800       0.07110180       0.00092600
   128  N          0.33417800       0.57110180       0.00092600
   129  O          0.71682700       0.08091160       0.44477500
   130  O          0.21682700       0.58091160       0.44477500
   131  O          0.28317300       0.08091160       0.05522500
   132  O          0.78317300       0.58091160       0.05522500
   133  O          0.28317300       0.91908840       0.55522500
   134  O          0.78317300       0.41908840       0.55522500
   135  O          0.71682700       0.91908840       0.94477500
   136  O          0.21682700       0.41908840       0.94477500
   137  O          0.94509800       0.77189820       0.55926500
   138  O          0.44509800       0.27189820       0.55926500
   139  O          0.05490200       0.77189820       0.94073500
   140  O          0.55490200       0.27189820       0.94073500
   141  O          0.05490200       0.22810180       0.44073500
   142  O          0.55490200       0.72810180       0.44073500
   143  O          0.94509800       0.22810180       0.05926500
   144  O          0.44509800       0.72810180       0.05926500
   145  N          0.83609900       0.97441810       0.38118600
   146  N          0.33609900       0.47441810       0.38118600
   147  N          0.16390100       0.97441810       0.11881400
   148  N          0.66390100       0.47441810       0.11881400
   149  N          0.16390100       0.02558190       0.61881400
   150  N          0.66390100       0.52558190       0.61881400
   151  N          0.83609900       0.02558190       0.88118600
   152  N          0.33609900       0.52558190       0.88118600
   153  C          0.91813110       0.88468000       0.37889800
   154  C          0.41813110       0.38468000       0.37889800
   155  C          0.08186890       0.88468000       0.12110200
   156  C          0.58186890       0.38468000       0.12110200
   157  C          0.08186890       0.11532000       0.62110200
   158  C          0.58186890       0.61532000       0.62110200
   159  C          0.91813110       0.11532000       0.87889800
   160  C          0.41813110       0.61532000       0.87889800
   161  C          0.91520100       0.83198000       0.50258700
   162  C          0.41520100       0.33198000       0.50258700
   163  C          0.08479900       0.83198000      -0.00258700
   164  C          0.58479900       0.33198000      -0.00258700
   165  C          0.08479900       0.16802000       0.49741300
   166  C          0.58479900       0.66802000       0.49741300
   167  C          0.91520100       0.16802000       0.00258700
   168  C          0.41520100       0.66802000       0.00258700
   169  C          0.95857120       0.81388000       0.43598800
   170  C          0.45857120       0.31388000       0.43598800
   171  C          0.04142880       0.81388000       0.06401200
   172  C          0.54142880       0.31388000       0.06401200
   173  C          0.04142880       0.18612000       0.56401200
   174  C          0.54142880       0.68612000       0.56401200
   175  C          0.95857120       0.18612000       0.93598800
   176  C          0.45857120       0.68612000       0.93598800
   177  C          0.79086100       0.00022000       0.44235700
   178  C          0.29086100       0.50022000       0.44235700
   179  C          0.20913900       0.00022000       0.05764300
   180  C          0.70913900       0.50022000       0.05764300
   181  C          0.20913900      -0.00022000       0.55764300
   182  C          0.70913900       0.49978000       0.55764300
   183  C          0.79086100      -0.00022000       0.94235700
   184  C          0.29086100       0.49978000       0.94235700
   185  H          0.94481200       0.88080000       0.33349000
   186  H          0.44481200       0.38080000       0.33349000
   187  H          0.05518800       0.88080000       0.16651000
   188  H          0.55518800       0.38080000       0.16651000
   189  H          0.05518800       0.11920000       0.66651000
   190  H          0.55518800       0.61920000       0.66651000
   191  H          0.94481200       0.11920000       0.83349000
   192  H          0.44481200       0.61920000       0.83349000
   193  H          0.80821300       0.94880000       0.54061000
   194  H          0.30821300       0.44880000       0.54061000
   195  H          0.19178700       0.94880000       0.95939000
   196  H          0.69178700       0.44880000       0.95939000
   197  H          0.19178700       0.05120000       0.45939000
   198  H          0.69178700       0.55120000       0.45939000
   199  H          0.80821300       0.05120000       0.04061000
   200  H          0.30821300       0.55120000       0.04061000
   201  H          0.01381300       0.75370000       0.43489000
   202  H          0.51381300       0.25370000       0.43489000
   203  H          0.98618700       0.75370000       0.06511000
   204  H          0.48618700       0.25370000       0.06511000
   205  H          0.98618700       0.24630000       0.56511000
   206  H          0.48618700       0.74630000       0.56511000
   207  H          0.01381300       0.24630000       0.93489000
   208  H          0.51381300       0.74630000       0.93489000
   209  H          0.81091200       0.01920000       0.34481000
   210  H          0.31091200       0.51920000       0.34481000
   211  H          0.18908800       0.01920000       0.15519000
   212  H          0.68908800       0.51920000       0.15519000
   213  H          0.18908800       0.98080000       0.65519000
   214  H          0.68908800       0.48080000       0.65519000
   215  H          0.81091200       0.98080000       0.84481000
   216  H          0.31091200       0.48080000       0.84481000
