data_VIFZET
_symmetry_space_group_name_H-M    'P1'
_symmetry_Int_Tables_number       1
loop_
_symmetry_equiv_pos_site_id
_symmetry_equiv_pos_as_xyz
1 x,y,z
_cell_length_a                   6.63034
_cell_length_b                   7.83385
_cell_length_c                   7.94495
_cell_angle_alpha                117.1372
_cell_angle_beta                 93.1262
_cell_angle_gamma                111.6742
loop_
_atom_site_label
_atom_site_type_symbol
_atom_site_fract_x
_atom_site_fract_y
_atom_site_fract_z
     1  C          0.55563000       0.68993000       0.01142000
     2  C          0.44437000       0.31007000      -0.01142000
     3  H          0.59338800       0.82012700       0.01838900
     4  H          0.40661200       0.17987300      -0.01838900
     5  C          0.41213000       0.50433000       0.84578000
     6  C          0.58787000       0.49567000       0.15422000
     7  H          0.35190400       0.50840100       0.73998700
     8  H          0.64809600       0.49159900       0.26001300
     9  N          0.64392000       0.68522000       0.16652190
    10  N          0.35608000       0.31478000       0.83347810
    11  O          0.78362000       0.86342000       0.32439180
    12  O          0.21638000       0.13658000       0.67560820
    13  N          0.14063000       0.57503000       0.25342000
    14  N          0.85937000       0.42497000       0.74658000
    15  N          0.01783000       0.36953000       0.13682000
    16  N         -0.01783000       0.63047000       0.86318000
    17  N          0.05643000       0.27243000       0.22453000
    18  N          0.94357000       0.72757000       0.77547000
    19  N          0.20303000       0.41913000       0.39502000
    20  N          0.79697000       0.58087000       0.60498000
    21  N          0.25443000       0.60423000       0.41252000
    22  N          0.74557000       0.39577000       0.58748000
    23  N          0.78232000       0.00962000       0.71002000
    24  N          0.21768000      -0.00962000       0.28998000
    25  H          0.83986300       0.15055000       0.76164800
    26  H          0.16013700       0.84945000       0.23835200
    27  H          0.76193900       0.94575900       0.58050900
    28  H          0.23806100       0.05424100       0.41949100
    29  H          0.87685800      -0.02112500       0.76162300
    30  H          0.12314200       0.02112500       0.23837700
    31  N          0.57272000       0.93582000       0.75192000
    32  N          0.42728000       0.06418000       0.24808000
    33  H          0.57902500       0.02246300       0.73800900
    34  H          0.42097500      -0.02246300       0.26199100
    35  H          0.48343800       0.82673400       0.65100600
    36  H          0.51656200       0.17326600       0.34899400
