data_VIGFOH
_symmetry_space_group_name_H-M    'P1'
_symmetry_Int_Tables_number       1
loop_
_symmetry_equiv_pos_site_id
_symmetry_equiv_pos_as_xyz
1 x,y,z
_cell_length_a                   6.52074
_cell_length_b                   14.03779
_cell_length_c                   13.12329
_cell_angle_alpha                90.0
_cell_angle_beta                 104.28001
_cell_angle_gamma                90.0
loop_
_atom_site_label
_atom_site_type_symbol
_atom_site_fract_x
_atom_site_fract_y
_atom_site_fract_z
     1  S          0.11335700       0.20152300       0.42708300
     2  S          0.38664300       0.70152300       0.07291700
     3  S          0.88664300       0.79847700       0.57291700
     4  S          0.61335700       0.29847700       0.92708300
     5  O          0.06802000       0.29632900       0.38786110
     6  O          0.43198000       0.79632900       0.11213890
     7  O          0.93198000       0.70367100       0.61213890
     8  O          0.56802000       0.20367100       0.88786110
     9  O          0.68142000       0.02051900       0.36859100
    10  O          0.81858000       0.52051900       0.13140900
    11  O          0.31858000       0.97948100       0.63140900
    12  O          0.18142000       0.47948100       0.86859100
    13  O          0.32482000       0.16885110       0.43723110
    14  O          0.17518000       0.66885110       0.06276890
    15  O          0.67518000       0.83114890       0.56276890
    16  O          0.82482000       0.33114890       0.93723110
    17  C          0.80933000       0.08051120       0.40765130
    18  C          0.69067000       0.58051120       0.09234870
    19  C          0.19067000       0.91948880       0.59234870
    20  C          0.30933000       0.41948880       0.90765130
    21  C          0.85123000       0.11872120       0.51700130
    22  C          0.64877000       0.61872120       0.98299870
    23  C          0.14877000       0.88127880       0.48299870
    24  C          0.35123000       0.38127880       0.01700130
    25  N          0.94502000       0.12515110       0.35647120
    26  N          0.55498000       0.62515110       0.14352880
    27  N          0.05498000       0.87484890       0.64352880
    28  N          0.44502000       0.37484890       0.85647120
    29  C          0.79833000       0.14559130       0.68737140
    30  C          0.70167000       0.64559130       0.81262860
    31  C          0.20167000       0.85440870       0.31262860
    32  C          0.29833000       0.35440870       0.18737140
    33  H          0.72110000       0.13460000       0.73890000
    34  H          0.77890000       0.63460000       0.76110000
    35  H          0.27890000       0.86540000       0.26110000
    36  H          0.22110000       0.36540000       0.23890000
    37  C          0.73883000       0.09868130       0.59138140
    38  C          0.76117000       0.59868130       0.90861860
    39  C          0.26117000       0.90131870       0.40861860
    40  C          0.23883000       0.40131870       0.09138140
    41  H          0.62510000       0.05440000       0.57720000
    42  H          0.87490000       0.55440000       0.92280000
    43  H          0.37490000       0.94560000       0.42280000
    44  H          0.12510000       0.44560000       0.07720000
    45  C          0.96833000       0.20809130       0.70948150
    46  C          0.53167000       0.70809130       0.79051850
    47  C          0.03167000       0.79190870       0.29051850
    48  C          0.46833000       0.29190870       0.20948150
    49  H          0.00770000       0.23780000       0.77650000
    50  H          0.49230000       0.73780000       0.72350000
    51  H         -0.00770000       0.76220000       0.22350000
    52  H          0.50770000       0.26220000       0.27650000
    53  C          0.01703000       0.18267130       0.53955140
    54  C          0.48297000       0.68267130       0.96044860
    55  C         -0.01703000       0.81732870       0.46044860
    56  C          0.51703000       0.31732870       0.03955140
    57  C          0.08213000       0.22801140       0.63545150
    58  C          0.41787000       0.72801140       0.86454850
    59  C          0.91787000       0.77198860       0.36454850
    60  C          0.58213000       0.27198860       0.13545150
    61  H          0.19880000       0.27070000       0.65000000
    62  H          0.30120000       0.77070000       0.85000000
    63  H          0.80120000       0.72930000       0.35000000
    64  H          0.69880000       0.22930000       0.15000000
    65  H          0.95140000       0.11551700       0.29220000
    66  H          0.54860000       0.61551700       0.20780000
    67  H          0.04860000       0.88448300       0.70780000
    68  H          0.45140000       0.38448300       0.79220000
    69  O          0.53792000       0.63038110       0.34408100
    70  O          0.96208000       0.13038110       0.15591900
    71  O          0.46208000       0.36961890       0.65591900
    72  O          0.03792000       0.86961890       0.84408100
    73  N          0.38482000       0.59925110       0.38486120
    74  N          0.11518000       0.09925110       0.11513880
    75  N          0.61518000       0.40074890       0.61513880
    76  N          0.88482000       0.90074890       0.88486120
    77  C          0.07943000       0.52224110       0.47608130
    78  C          0.42057000       0.02224110       0.02391870
    79  C          0.92057000       0.47775890       0.52391870
    80  C          0.57943000       0.97775890       0.97608130
    81  C          0.05893000       0.51924120       0.36755130
    82  C          0.44107000       0.01924120       0.13244870
    83  C          0.94107000       0.48075880       0.63244870
    84  C          0.55893000       0.98075880       0.86755130
    85  H          0.93820000       0.48970000       0.32330000
    86  H          0.56180000       0.98970000       0.17670000
    87  H          0.06180000       0.51030000       0.67670000
    88  H          0.43820000       0.01030000       0.82330000
    89  C          0.21043000       0.55826130       0.32382130
    90  C          0.28957000       0.05826130       0.17617870
    91  C          0.78957000       0.44173870       0.67617870
    92  C          0.71043000       0.94173870       0.82382130
    93  H          0.19210000       0.55630000       0.24980000
    94  H          0.30790000       0.05630000       0.25020000
    95  H          0.80790000       0.44370000       0.75020000
    96  H          0.69210000       0.94370000       0.74980000
    97  C          0.25563000       0.56982130       0.53545140
    98  C          0.24437000       0.06982130       0.96454860
    99  C          0.74437000       0.43017870       0.46454860
   100  C          0.75563000       0.93017870       0.03545140
   101  H          0.27250000       0.57650000       0.60910000
   102  H          0.22750000       0.07650000       0.89090000
   103  H          0.72750000       0.42350000       0.39090000
   104  H          0.77250000       0.92350000       0.10910000
   105  C          0.40633000       0.60752140       0.48976140
   106  C          0.09367000       0.10752140       0.01023860
   107  C          0.59367000       0.39247860       0.51023860
   108  C          0.90633000       0.89247860      -0.01023860
   109  H          0.52580000       0.63950000       0.53200000
   110  H         -0.02580000       0.13950000       0.96800000
   111  H          0.47420000       0.36050000       0.46800000
   112  H          0.02580000       0.86050000       0.03200000
