data_VIKCOK
_symmetry_space_group_name_H-M    'P1'
_symmetry_Int_Tables_number       1
loop_
_symmetry_equiv_pos_site_id
_symmetry_equiv_pos_as_xyz
1 x,y,z
_cell_length_a                   11.57289
_cell_length_b                   12.13406
_cell_length_c                   12.53599
_cell_angle_alpha                78.5105
_cell_angle_beta                 69.7587
_cell_angle_gamma                87.7695
loop_
_atom_site_label
_atom_site_type_symbol
_atom_site_fract_x
_atom_site_fract_y
_atom_site_fract_z
     1  O          0.88970150       0.92310110       0.35770120
     2  O          0.11029850       0.07689890       0.64229880
     3  N          0.95936170       0.00197140       0.16924150
     4  N          0.04063830      -0.00197140       0.83075850
     5  H          0.98650000       0.05650000       0.11060000
     6  H          0.01350000       0.94350000       0.88940000
     7  C          0.93172000       0.01291170       0.27656190
     8  C          0.06828000       0.98708830       0.72343810
     9  C          0.94422000       0.11867170       0.31208190
    10  C          0.05578000       0.88132830       0.68791810
    11  C          0.98132000       0.21819180       0.23192000
    12  C          0.01868000       0.78180820       0.76808000
    13  H         -0.00190000       0.21890000       0.15370000
    14  H          0.00190000       0.78110000       0.84630000
    15  C         -0.00638000       0.31618190       0.26712000
    16  C          0.00638000       0.68381810       0.73288000
    17  H          0.01790000       0.38300000       0.21270000
    18  H          0.98210000       0.61700000       0.78730000
    19  C          0.97003000       0.31532000       0.38242000
    20  C          0.02997000       0.68468000       0.61758000
    21  H          0.97890000       0.38150000       0.40600000
    22  H          0.02110000       0.61850000       0.59400000
    23  C          0.93343000       0.21742000       0.46292000
    24  C          0.06657000       0.78258000       0.53708000
    25  H          0.91760000       0.21730000       0.54090000
    26  H          0.08240000       0.78270000       0.45910000
    27  C          0.91972000       0.11852000       0.42892000
    28  C          0.08028000       0.88148000       0.57108000
    29  H          0.89430000       0.05220000       0.48380000
    30  H          0.10570000       0.94780000       0.51620000
    31  C          0.67452000       0.92946190       0.24552000
    32  C          0.32548000       0.07053810       0.75448000
    33  H          0.68060000       0.97090000       0.30210000
    34  H          0.31940000       0.02910000       0.69790000
    35  H          0.68990000       0.98260000       0.17280000
    36  H          0.31010000       0.01740000       0.82720000
    37  C          0.54713000       0.88223000       0.28455000
    38  C          0.45287000       0.11777000       0.71545000
    39  H          0.52900000       0.83580000       0.36130000
    40  H          0.47100000       0.16420000       0.63870000
    41  H          0.54420000       0.83330000       0.23300000
    42  H          0.45580000       0.16670000       0.76700000
    43  C          0.44713000       0.96572000       0.28934000
    44  C          0.55287000       0.03428000       0.71066000
    45  C          0.40823000       0.02733000       0.37463000
    46  C          0.59177000       0.97267000       0.62537000
    47  H          0.44310000       0.01460000       0.43230000
    48  H          0.55690000       0.98540000       0.56770000
    49  C          0.32064000       0.10663000       0.37954000
    50  C          0.67936000       0.89337000       0.62046000
    51  H          0.29920000       0.14920000       0.43700000
    52  H          0.70080000       0.85080000       0.56300000
    53  C          0.26643000       0.12143000       0.30015000
    54  C          0.73357000       0.87857000       0.69985000
    55  H          0.20460000       0.17350000       0.30450000
    56  H          0.79540000       0.82650000       0.69550000
    57  C          0.29735000       0.06504000       0.21566000
    58  C          0.70265000       0.93496000       0.78434000
    59  H          0.25770000       0.07720000       0.16140000
    60  H          0.74230000       0.92280000       0.83860000
    61  C          0.39145000       0.98534000       0.20775000
    62  C          0.60855000       0.01466000       0.79225000
    63  H          0.41530000       0.94650000       0.14700000
    64  H          0.58470000       0.05350000       0.85300000
    65  B          0.88502000       0.82392000       0.30482000
    66  B          0.11498000       0.17608000       0.69518000
    67  B          0.93832000       0.88215190       0.15932000
    68  B          0.06168000       0.11784810       0.84068000
    69  B          0.78002000       0.83872000       0.22742000
    70  B          0.21998000       0.16128000       0.77258000
    71  B          0.77563000       0.71512000       0.33342000
    72  B          0.22437000       0.28488000       0.66658000
    73  H          0.69690000       0.69450000       0.41500000
    74  H          0.30310000       0.30550000       0.58500000
    75  B          0.93093000       0.68352000       0.32812000
    76  B          0.06907000       0.31648000       0.67188000
    77  H          0.95100000       0.64260000       0.40600000
    78  H          0.04900000       0.35740000       0.59400000
    79  B          0.03213000       0.78742000       0.21812000
    80  B          0.96787000       0.21258000       0.78188000
    81  H          0.11850000       0.81330000       0.22560000
    82  H          0.88150000       0.18670000       0.77440000
    83  B          0.02213000       0.78222000       0.08062000
    84  B          0.97787000       0.21778000       0.91938000
    85  H          0.10100000       0.80510000      -0.00050000
    86  H          0.89900000       0.19490000       0.00050000
    87  B          0.86692000       0.81302000       0.08672000
    88  B          0.13308000       0.18698000       0.91328000
    89  H          0.84670000       0.85530000       0.00930000
    90  H          0.15330000       0.14470000      -0.00930000
    91  B          0.76723000       0.70602000       0.19552000
    92  B          0.23277000       0.29398000       0.80448000
    93  H          0.68180000       0.67750000       0.18780000
    94  H          0.31820000       0.32250000       0.81220000
    95  B          0.85773000       0.61142000       0.25652000
    96  B          0.14227000       0.38858000       0.74348000
    97  H          0.83050000       0.52170000       0.28870000
    98  H          0.16950000       0.47830000       0.71130000
    99  B          0.01523000       0.65662000       0.18592000
   100  B          0.98477000       0.34338000       0.81408000
   101  H          0.09010000       0.59650000       0.17220000
   102  H          0.90990000       0.40350000       0.82780000
   103  B          0.91483000       0.67132000       0.10492000
   104  B          0.08517000       0.32868000       0.89508000
   105  H          0.92510000       0.62090000       0.03850000
   106  H          0.07490000       0.37910000       0.96150000
   107  N          0.61592000       0.34522000       0.16222000
   108  N          0.38408000       0.65478000       0.83778000
   109  H          0.55840000       0.38330000       0.21030000
   110  H          0.44160000       0.61670000       0.78970000
   111  C          0.55044000       0.29843000       0.09664000
   112  C          0.44956000       0.70157000       0.90336000
   113  H          0.48360000       0.24840000       0.15140000
   114  H          0.51640000       0.75160000       0.84860000
   115  H          0.51430000       0.35980000       0.05760000
   116  H          0.48570000       0.64020000       0.94240000
   117  C          0.62814000       0.23684000       0.01074000
   118  C          0.37186000       0.76316000      -0.01074000
   119  H          0.69100000       0.28680000       0.95250000
   120  H          0.30900000       0.71320000       0.04750000
   121  H          0.57870000       0.20640000       0.97500000
   122  H          0.42130000       0.79360000       0.02500000
   123  H          0.66570000       0.17660000       0.04790000
   124  H          0.33430000       0.82340000       0.95210000
   125  C          0.65454000       0.25273000       0.23983000
   126  C          0.34546000       0.74727000       0.76017000
   127  H          0.60430000       0.18570000       0.25360000
   128  H          0.39570000       0.81430000       0.74640000
   129  H          0.73950000       0.23590000       0.20030000
   130  H          0.26050000       0.76410000       0.79970000
   131  C          0.64414000       0.27914000       0.35034000
   132  C          0.35586000       0.72086000       0.64966000
   133  H          0.69240000       0.34610000       0.33750000
   134  H          0.30760000       0.65390000       0.66250000
   135  H          0.67360000       0.21780000       0.39430000
   136  H          0.32640000       0.78220000       0.60570000
   137  H          0.55930000       0.29090000       0.39230000
   138  H          0.44070000       0.70910000       0.60770000
   139  C          0.71863000       0.42913000       0.09123000
   140  C          0.28137000       0.57087000       0.90877000
   141  H          0.74990000       0.45840000       0.14290000
   142  H          0.25010000       0.54160000       0.85710000
   143  H          0.78520000       0.39110000       0.04220000
   144  H          0.21480000       0.60890000       0.95780000
   145  C          0.68084000       0.52523000       0.01673000
   146  C          0.31916000       0.47477000       0.98327000
   147  H          0.66190000       0.49840000       0.95740000
   148  H          0.33810000       0.50160000       0.04260000
   149  H          0.74690000       0.58070000       0.98140000
   150  H          0.25310000       0.41930000       0.01860000
   151  H          0.60930000       0.55820000       0.06350000
   152  H          0.39070000       0.44180000       0.93650000
   153  O          0.57722000       0.53742000       0.71063000
   154  O          0.42278000       0.46258000       0.28937000
   155  C          0.56024000       0.46005000       0.64557000
   156  C          0.43976000       0.53995000       0.35443000
   157  H          0.49070000       0.40900000       0.69200000
   158  H          0.50930000       0.59100000       0.30800000
   159  H          0.54440000       0.49980000       0.57700000
   160  H          0.45560000       0.50020000       0.42300000
   161  C          0.67015000       0.39925000       0.61326000
   162  C          0.32985000       0.60075000       0.38674000
   163  H          0.69290000       0.39140000       0.53300000
   164  H          0.30710000       0.60860000       0.46700000
   165  H          0.65830000       0.32460000       0.66180000
   166  H          0.34170000       0.67540000       0.33820000
   167  C          0.76374000       0.46094000       0.62774000
   168  C          0.23626000       0.53906000       0.37226000
   169  H          0.82810000       0.48680000       0.55360000
   170  H          0.17190000       0.51320000       0.44640000
   171  H          0.80000000       0.41400000       0.67930000
   172  H          0.20000000       0.58600000       0.32070000
   173  C          0.70473000       0.55693000       0.67763000
   174  C          0.29527000       0.44307000       0.32237000
   175  H          0.72670000       0.56240000       0.74430000
   176  H          0.27330000       0.43760000       0.25570000
   177  H          0.73040000       0.62630000       0.62070000
   178  H          0.26960000       0.37370000       0.37930000
