data_VIKHON
_symmetry_space_group_name_H-M    'P1'
_symmetry_Int_Tables_number       1
loop_
_symmetry_equiv_pos_site_id
_symmetry_equiv_pos_as_xyz
1 x,y,z
_cell_length_a                   8.27039
_cell_length_b                   13.193914
_cell_length_c                   23.3633
_cell_angle_alpha                90.0
_cell_angle_beta                 90.0
_cell_angle_gamma                90.0
loop_
_atom_site_label
_atom_site_type_symbol
_atom_site_fract_x
_atom_site_fract_y
_atom_site_fract_z
     1  Br         0.50581700       0.45651500       0.20640200
     2  Br        -0.00581700       0.54348500       0.70640200
     3  Br         0.49418300       0.95651500       0.29359800
     4  Br         0.00581700       0.04348500       0.79359800
     5  Br         0.46209900       0.57409600       0.28793300
     6  Br         0.03790100       0.42590400       0.78793300
     7  Br         0.53790100       0.07409600       0.21206700
     8  Br         0.96209900       0.92590400       0.71206700
     9  Br         0.54389900       0.33108500       0.11935300
    10  Br         0.95610100       0.66891500       0.61935300
    11  Br         0.45610100       0.83108500       0.38064700
    12  Br         0.04389900       0.16891500       0.88064700
    13  O         -0.01115000       0.58043000       0.13934160
    14  O          0.51115000       0.41957000       0.63934160
    15  O          0.01115000       0.08043000       0.36065840
    16  O          0.48885000       0.91957000       0.86065840
    17  O         -0.00385000       0.46293000       0.03717160
    18  O          0.50385000       0.53707000       0.53717160
    19  O          0.00385000       0.96293000       0.46282840
    20  O          0.49615000       0.03707000       0.96282840
    21  O          0.71584000       0.47083000       0.96453830
    22  O          0.78416000       0.52917000       0.46453830
    23  O          0.28416000       0.97083000       0.53546170
    24  O          0.21584000       0.02917000       0.03546170
    25  O          0.52594000       0.63983000       0.97565850
    26  O          0.97406000       0.36017000       0.47565850
    27  O          0.47406000       0.13983000       0.52434150
    28  O          0.02594000       0.86017000       0.02434150
    29  O          0.51705000       0.74803000       0.07877150
    30  O          0.98295000       0.25197000       0.57877150
    31  O          0.48295000       0.24803000       0.42122850
    32  O          0.01705000       0.75197000       0.92122850
    33  O          0.78175000       0.74043000       0.15891170
    34  O          0.71825000       0.25957000       0.65891170
    35  O          0.21825000       0.24043000       0.34108830
    36  O          0.28175000       0.75957000       0.84108830
    37  C          0.12547000       0.52195000       0.12143000
    38  C          0.37453000       0.47805000       0.62143000
    39  C          0.87453000       0.02195000       0.37857000
    40  C          0.62547000       0.97805000       0.87857000
    41  H          0.18720000       0.50080000       0.15460000
    42  H          0.31280000       0.49920000       0.65460000
    43  H          0.81280000       0.00080000       0.34540000
    44  H          0.68720000      -0.00080000       0.84540000
    45  H          0.19480000       0.56290000       0.09730000
    46  H          0.30520000       0.43710000       0.59730000
    47  H          0.80520000       0.06290000       0.40270000
    48  H          0.69480000       0.93710000       0.90270000
    49  C          0.06957000       0.43125000       0.08923000
    50  C          0.43043000       0.56875000       0.58923000
    51  C          0.93043000       0.93125000       0.41077000
    52  C          0.56957000       0.06875000       0.91077000
    53  H          0.16070000       0.38720000       0.08100000
    54  H          0.33930000       0.61280000       0.58100000
    55  H          0.83930000       0.88720000       0.41900000
    56  H          0.66070000       0.11280000       0.91900000
    57  H         -0.00770000       0.39340000       0.11200000
    58  H          0.50770000       0.60660000       0.61200000
    59  H          0.00770000       0.89340000       0.38800000
    60  H          0.49230000       0.10660000       0.88800000
    61  C          0.93547000       0.37965000       0.00572000
    62  C          0.56453000       0.62035000       0.50572000
    63  C          0.06453000       0.87965000       0.49428000
    64  C          0.43547000       0.12035000      -0.00572000
    65  H          0.85480000       0.34410000       0.02820000
    66  H          0.64520000       0.65590000       0.52820000
    67  H          0.14520000       0.84410000       0.47180000
    68  H          0.35480000       0.15590000       0.97180000
    69  H          0.02260000       0.33270000      -0.00260000
    70  H          0.47740000       0.66730000       0.49740000
    71  H          0.97740000       0.83270000       0.50260000
    72  H          0.52260000       0.16730000       0.00260000
    73  C          0.86157000       0.41545000       0.95097000
    74  C          0.63843000       0.58455000       0.45097000
    75  C          0.13843000       0.91545000       0.54903000
    76  C          0.36157000       0.08455000       0.04903000
    77  H          0.93670000       0.45880000       0.93070000
    78  H          0.56330000       0.54120000       0.43070000
    79  H          0.06330000       0.95880000       0.56930000
    80  H          0.43670000       0.04120000       0.06930000
    81  H          0.83600000       0.35790000       0.92670000
    82  H          0.66400000       0.64210000       0.42670000
    83  H          0.16400000       0.85790000       0.57330000
    84  H          0.33600000       0.14210000       0.07330000
    85  C          0.62896000       0.50884000       0.91528000
    86  C          0.87104000       0.49116000       0.41528000
    87  C          0.37104000       0.00884000       0.58472000
    88  C          0.12896000      -0.00884000       0.08472000
    89  H          0.69500000       0.56000000       0.89590000
    90  H          0.80500000       0.44000000       0.39590000
    91  H          0.30500000       0.06000000       0.60410000
    92  H          0.19500000       0.94000000       0.10410000
    93  C          0.58457000       0.42595000       0.87288000
    94  C          0.91543000       0.57405000       0.37288000
    95  C          0.41543000       0.92595000       0.62712000
    96  C          0.08457000       0.07405000       0.12712000
    97  H          0.68210000       0.39380000       0.85880000
    98  H          0.81790000       0.60620000       0.35880000
    99  H          0.31790000       0.89380000       0.64120000
   100  H          0.18210000       0.10620000       0.14120000
   101  H          0.52800000       0.45540000       0.84060000
   102  H          0.97200000       0.54460000       0.34060000
   103  H          0.47200000       0.95540000       0.65940000
   104  H          0.02800000       0.04460000       0.15940000
   105  C          0.47658000       0.34634000       0.90147000
   106  C          0.02342000       0.65366000       0.40147000
   107  C          0.52342000       0.84634000       0.59853000
   108  C          0.97658000       0.15366000       0.09853000
   109  H          0.44430000       0.29600000       0.87350000
   110  H          0.05570000       0.70400000       0.37350000
   111  H          0.55570000       0.79600000       0.62650000
   112  H          0.94430000       0.20400000       0.12650000
   113  H          0.53660000       0.31210000       0.93150000
   114  H          0.96340000       0.68790000       0.43150000
   115  H          0.46340000       0.81210000       0.56850000
   116  H          0.03660000       0.18790000       0.06850000
   117  C          0.32637000       0.39615000       0.92707000
   118  C          0.17363000       0.60385000       0.42707000
   119  C          0.67363000       0.89615000       0.57293000
   120  C          0.82637000       0.10385000       0.07293000
   121  H          0.26010000       0.42320000       0.89640000
   122  H          0.23990000       0.57680000       0.39640000
   123  H          0.73990000       0.92320000       0.60360000
   124  H          0.76010000       0.07680000       0.10360000
   125  H          0.26320000       0.34530000       0.94710000
   126  H          0.23680000       0.65470000       0.44710000
   127  H          0.73680000       0.84530000       0.55290000
   128  H          0.76320000       0.15470000       0.05290000
   129  C          0.36997000       0.48065000       0.96817000
   130  C          0.13003000       0.51935000       0.46817000
   131  C          0.63003000       0.98065000       0.53183000
   132  C          0.86997000       0.01935000       0.03183000
   133  H          0.42490000       0.45250000       0.00120000
   134  H          0.07510000       0.54750000       0.50120000
   135  H          0.57510000       0.95250000       0.49880000
   136  H          0.92490000       0.04750000      -0.00120000
   137  H          0.27210000       0.51370000       0.98140000
   138  H          0.22790000       0.48630000       0.48140000
   139  H          0.72790000       0.01370000       0.51860000
   140  H          0.77210000       0.98630000       0.01860000
   141  C          0.47947000       0.55824000       0.93888000
   142  C          0.02053000       0.44176000       0.43888000
   143  C          0.52053000       0.05824000       0.56112000
   144  C          0.97947000       0.94176000       0.06112000
   145  H          0.41930000       0.58720000       0.90670000
   146  H          0.08070000       0.41280000       0.40670000
   147  H          0.58070000       0.08720000       0.59330000
   148  H          0.91930000       0.91280000       0.09330000
   149  C          0.39587000       0.70635000       0.98957000
   150  C          0.10413000       0.29365000       0.48957000
   151  C          0.60413000       0.20635000       0.51043000
   152  C          0.89587000       0.79365000       0.01043000
   153  H          0.31130000       0.66860000       0.00900000
   154  H          0.18870000       0.33140000       0.50900000
   155  H          0.68870000       0.16860000       0.49100000
   156  H          0.81130000       0.83140000       0.99100000
   157  H          0.35050000       0.73440000       0.95470000
   158  H          0.14950000       0.26560000       0.45470000
   159  H          0.64950000       0.23440000       0.54530000
   160  H          0.85050000       0.76560000       0.04530000
   161  C          0.45347000       0.79044000       0.02722000
   162  C          0.04653000       0.20956000       0.52722000
   163  C          0.54653000       0.29044000       0.47278000
   164  C          0.95347000       0.70956000       0.97278000
   165  H          0.53660000       0.82900000       0.00780000
   166  H          0.96340000       0.17100000       0.50780000
   167  H          0.46340000       0.32900000       0.49220000
   168  H          0.03660000       0.67100000       0.99220000
   169  H          0.36450000       0.83560000       0.03610000
   170  H          0.13550000       0.16440000       0.53610000
   171  H          0.63550000       0.33560000       0.46390000
   172  H          0.86450000       0.66440000       0.96390000
   173  C          0.55037000       0.82425000       0.11992000
   174  C          0.94963000       0.17575000       0.61992000
   175  C          0.44963000       0.32425000       0.38008000
   176  C          0.05037000       0.67575000       0.88008000
   177  H          0.45110000       0.85910000       0.13010000
   178  H          0.04890000       0.14090000       0.63010000
   179  H          0.54890000       0.35910000       0.36990000
   180  H          0.95110000       0.64090000       0.86990000
   181  H          0.62480000       0.87350000       0.10400000
   182  H          0.87520000       0.12650000       0.60400000
   183  H          0.37520000       0.37350000       0.39600000
   184  H          0.12480000       0.62650000       0.89600000
   185  C          0.62377000       0.77605000       0.17253000
   186  C          0.87623000       0.22395000       0.67253000
   187  C          0.37623000       0.27605000       0.32747000
   188  C          0.12377000       0.72395000       0.82747000
   189  H          0.62960000       0.82530000       0.20320000
   190  H          0.87040000       0.17470000       0.70320000
   191  H          0.37040000       0.32530000       0.29680000
   192  H          0.12960000       0.67470000       0.79680000
   193  H          0.55670000       0.72000000       0.18520000
   194  H          0.94330000       0.28000000       0.68520000
   195  H          0.44330000       0.22000000       0.31480000
   196  H          0.05670000       0.78000000       0.81480000
   197  C          0.86047000       0.69035000       0.20663000
   198  C          0.63953000       0.30965000       0.70663000
   199  C          0.13953000       0.19035000       0.29337000
   200  C          0.36047000       0.80965000       0.79337000
   201  H          0.79410000       0.63320000       0.21960000
   202  H          0.70590000       0.36680000       0.71960000
   203  H          0.20590000       0.13320000       0.28040000
   204  H          0.29410000       0.86680000       0.78040000
   205  C          0.89188000       0.76195000       0.25653000
   206  C          0.60812000       0.23805000       0.75653000
   207  C          0.10812000       0.26195000       0.24347000
   208  C          0.39188000       0.73805000       0.74347000
   209  H          0.78950000       0.78760000       0.27070000
   210  H          0.71050000       0.21240000       0.77070000
   211  H          0.21050000       0.28760000       0.22930000
   212  H          0.28950000       0.71240000       0.72930000
   213  H          0.94330000       0.72460000       0.28740000
   214  H          0.55670000       0.27540000       0.78740000
   215  H          0.05670000       0.22460000       0.21260000
   216  H          0.44330000       0.77540000       0.71260000
   217  C         -0.00141000       0.85015000       0.23962000
   218  C          0.50141000       0.14985000       0.73962000
   219  C          0.00141000       0.35015000       0.26038000
   220  C          0.49859000       0.64985000       0.76038000
   221  H          0.01870000       0.89250000       0.27270000
   222  H          0.48130000       0.10750000       0.77270000
   223  H          0.98130000       0.39250000       0.22730000
   224  H          0.51870000       0.60750000       0.72730000
   225  H          0.94380000       0.89080000       0.21090000
   226  H          0.55620000       0.10920000       0.71090000
   227  H          0.05620000       0.39080000       0.28910000
   228  H          0.44380000       0.60920000       0.78910000
   229  C          0.15797000       0.81185000       0.21563000
   230  C          0.34203000       0.18815000       0.71563000
   231  C          0.84203000       0.31185000       0.28437000
   232  C          0.65797000       0.68815000       0.78437000
   233  H          0.21880000       0.77950000       0.24610000
   234  H          0.28120000       0.22050000       0.74610000
   235  H          0.78120000       0.27950000       0.25390000
   236  H          0.71880000       0.72050000       0.75390000
   237  H          0.22060000       0.86900000       0.20200000
   238  H          0.27940000       0.13100000       0.70200000
   239  H          0.77940000       0.36900000       0.29800000
   240  H          0.72060000       0.63100000       0.79800000
   241  C          0.13497000       0.73625000       0.16673000
   242  C          0.36503000       0.26375000       0.66673000
   243  C          0.86503000       0.23625000       0.33327000
   244  C          0.63497000       0.76375000       0.83327000
   245  H          0.09020000       0.77090000       0.13370000
   246  H          0.40980000       0.22910000       0.63370000
   247  H          0.90980000       0.27090000       0.36630000
   248  H          0.59020000       0.72910000       0.86630000
   249  H          0.23880000       0.70810000       0.15580000
   250  H          0.26120000       0.29190000       0.65580000
   251  H          0.76120000       0.20810000       0.34420000
   252  H          0.73880000       0.79190000       0.84420000
   253  C          0.02217000       0.65144000       0.18472000
   254  C          0.47783000       0.34856000       0.68472000
   255  C          0.97783000       0.15144000       0.31528000
   256  C          0.52217000       0.84856000       0.81528000
   257  H          0.07430000       0.61410000       0.21600000
   258  H          0.42570000       0.38590000       0.71600000
   259  H          0.92570000       0.11410000       0.28400000
   260  H          0.57430000       0.88590000       0.78400000
   261  O          0.69585000       0.56174000       0.07812000
   262  O          0.80415000       0.43826000       0.57812000
   263  O          0.30415000       0.06174000       0.42188000
   264  O          0.19585000       0.93826000       0.92188000
   265  H          0.70380000       0.53940000       0.04341000
   266  H          0.79620000       0.46060000       0.54341000
   267  H          0.29620000       0.03940000       0.45659000
   268  H          0.20380000       0.96060000       0.95659000
   269  H          0.65580000       0.51230000       0.09720000
   270  H          0.84420000       0.48770000       0.59720000
   271  H          0.34420000       0.01230000       0.40280000
   272  H          0.15580000       0.98770000       0.90280000
   273  H          0.62260000       0.60840000       0.07730000
   274  H          0.87740000       0.39160000       0.57730000
   275  H          0.37740000       0.10840000       0.42270000
   276  H          0.12260000       0.89160000       0.92270000
