data_VILSIT
_symmetry_space_group_name_H-M    'P1'
_symmetry_Int_Tables_number       1
loop_
_symmetry_equiv_pos_site_id
_symmetry_equiv_pos_as_xyz
1 x,y,z
_cell_length_a                   15.951015
_cell_length_b                   5.99146
_cell_length_c                   23.0712
_cell_angle_alpha                90.0
_cell_angle_beta                 103.4944
_cell_angle_gamma                90.0
loop_
_atom_site_label
_atom_site_type_symbol
_atom_site_fract_x
_atom_site_fract_y
_atom_site_fract_z
     1  Br         0.83275810       0.09022300       0.62971980
     2  Br         0.16724190       0.59022300       0.87028020
     3  Br         0.16724190       0.90977700       0.37028020
     4  Br         0.83275810       0.40977700       0.12971980
     5  C          0.12472700       0.24842000       0.70414500
     6  C          0.87527300       0.74842000       0.79585500
     7  C          0.87527300       0.75158000       0.29585500
     8  C          0.12472700       0.25158000       0.20414500
     9  C          0.09034800       0.04582000       0.71731600
    10  C          0.90965200       0.54582000       0.78268400
    11  C          0.90965200       0.95418000       0.28268400
    12  C          0.09034800       0.45418000       0.21731600
    13  H          0.12650000       0.93980000       0.74180000
    14  H          0.87350000       0.43980000       0.75820000
    15  H          0.87350000       0.06020000       0.25820000
    16  H          0.12650000       0.56020000       0.24180000
    17  C          0.00345900      -0.00252000       0.69495600
    18  C         -0.00345900       0.49748000       0.80504400
    19  C         -0.00345900       0.00252000       0.30504400
    20  C          0.00345900       0.50252000       0.19495600
    21  H          0.98030000       0.85920000       0.70400000
    22  H          0.01970000       0.35920000       0.79600000
    23  H          0.01970000       0.14080000       0.29600000
    24  H          0.98030000       0.64080000       0.20400000
    25  C          0.95125200       0.15272000       0.65951600
    26  C          0.04874800       0.65272000       0.84048400
    27  C          0.04874800       0.84728000       0.34048400
    28  C          0.95125200       0.34728000       0.15951600
    29  C          0.98420100       0.35582000       0.64577600
    30  C          0.01579900       0.85582000       0.85422400
    31  C          0.01579900       0.64418000       0.35422400
    32  C          0.98420100       0.14418000       0.14577600
    33  H          0.94780000       0.46150000       0.62140000
    34  H          0.05220000       0.96150000       0.87860000
    35  H          0.05220000       0.53850000       0.37860000
    36  H          0.94780000       0.03850000       0.12140000
    37  C          0.07058800       0.40192000       0.66797600
    38  C          0.92941200       0.90192000       0.83202400
    39  C          0.92941200       0.59808000       0.33202400
    40  C          0.07058800       0.09808000       0.16797600
    41  H          0.09350000       0.53990000       0.65850000
    42  H          0.90650000       0.03990000       0.84150000
    43  H          0.90650000       0.46010000       0.34150000
    44  H          0.09350000       0.96010000       0.15850000
    45  C          0.21663700       0.29782000       0.72780500
    46  C          0.78336300       0.79782000       0.77219500
    47  C          0.78336300       0.70218000       0.27219500
    48  C          0.21663700       0.20218000       0.22780500
    49  N          0.25152700       0.46869180       0.70874500
    50  N          0.74847300       0.96869180       0.79125500
    51  N          0.74847300       0.53130820       0.29125500
    52  N          0.25152700       0.03130820       0.20874500
    53  O          0.33737600       0.48907170       0.73532400
    54  O          0.66262400      -0.01092830       0.76467600
    55  O          0.66262400       0.51092830       0.26467600
    56  O          0.33737600       0.01092830       0.23532400
    57  H          0.35211200       0.61330000       0.71748000
    58  H          0.64788800       0.11330000       0.78252000
    59  H          0.64788800       0.38670000       0.28252000
    60  H          0.35211200       0.88670000       0.21748000
    61  C          0.26670800       0.15422000       0.77307600
    62  C          0.73329200       0.65422000       0.72692400
    63  C          0.73329200       0.84578000       0.22692400
    64  C          0.26670800       0.34578000       0.27307600
    65  N          0.30584900       0.04372000       0.80988700
    66  N          0.69415100       0.54372000       0.69011300
    67  N          0.69415100       0.95628000       0.19011300
    68  N          0.30584900       0.45628000       0.30988700
    69  N          0.45081600       0.14130170       0.65915400
    70  N          0.54918400       0.64130170       0.84084600
    71  N          0.54918400       0.85869830       0.34084600
    72  N          0.45081600       0.35869830       0.15915400
    73  C          0.45731800       0.95262000       0.69237500
    74  C          0.54268200       0.45262000       0.80762500
    75  C          0.54268200       0.04738000       0.30762500
    76  C          0.45731800       0.54738000       0.19237500
    77  N          0.38422700       0.84072190       0.68400400
    78  N          0.61577300       0.34072190       0.81599600
    79  N          0.61577300       0.15927810       0.31599600
    80  N          0.38422700       0.65927810       0.18400400
    81  C          0.32566700       0.96442000       0.64201500
    82  C          0.67433300       0.46442000       0.85798500
    83  C          0.67433300       0.03558000       0.35798500
    84  C          0.32566700       0.53558000       0.14201500
    85  C          0.23899800       0.92332000       0.61529500
    86  C          0.76100200       0.42332000       0.88470500
    87  C          0.76100200       0.07668000       0.38470500
    88  C          0.23899800       0.57668000       0.11529500
    89  H          0.21060000       0.79570000       0.62600000
    90  H          0.78940000       0.29570000       0.87400000
    91  H          0.78940000       0.20430000       0.37400000
    92  H          0.21060000       0.70430000       0.12600000
    93  C          0.19538800       0.07192000       0.57296600
    94  C          0.80461200       0.57192000       0.92703400
    95  C          0.80461200       0.92808000       0.42703400
    96  C          0.19538800       0.42808000       0.07296600
    97  C          0.23799800       0.26382000       0.55716500
    98  C          0.76200200       0.76382000       0.94283500
    99  C          0.76200200       0.73618000       0.44283500
   100  C          0.23799800       0.23618000       0.05716500
   101  C          0.32405800       0.30532000       0.58363500
   102  C          0.67594200       0.80532000       0.91636500
   103  C          0.67594200       0.69468000       0.41636500
   104  C          0.32405800       0.19468000       0.08363500
   105  H          0.35280000       0.43300000       0.57330000
   106  H          0.64720000       0.93300000       0.92670000
   107  H          0.64720000       0.56700000       0.42670000
   108  H          0.35280000       0.06700000       0.07330000
   109  H          0.51090000       0.90170000       0.71920000
   110  H          0.48910000       0.40170000       0.78080000
   111  H          0.48910000       0.09830000       0.28080000
   112  H          0.51090000       0.59830000       0.21920000
   113  C          0.36658700       0.15312000       0.62576500
   114  C          0.63341300       0.65312000       0.87423500
   115  C          0.63341300       0.84688000       0.37423500
   116  C          0.36658700       0.34688000       0.12576500
   117  C          0.10259900       0.02733000       0.54278700
   118  C          0.89740100       0.52733000       0.95721300
   119  C          0.89740100       0.97267000       0.45721300
   120  C          0.10259900       0.47267000       0.04278700
   121  H          0.08330000       0.89080000       0.55910000
   122  H          0.91670000       0.39080000       0.94090000
   123  H          0.91670000       0.10920000       0.44090000
   124  H          0.08330000       0.60920000       0.05910000
   125  H          0.09710000       0.00880000       0.49990000
   126  H          0.90290000       0.50880000       0.00010000
   127  H          0.90290000      -0.00880000       0.50010000
   128  H          0.09710000       0.49120000      -0.00010000
   129  H          0.06690000       0.15320000       0.54970000
   130  H          0.93310000       0.65320000       0.95030000
   131  H          0.93310000       0.84680000       0.45030000
   132  H          0.06690000       0.34680000       0.04970000
   133  C          0.18995100       0.42082000       0.50992700
   134  C          0.81004900       0.92082000       0.99007300
   135  C          0.81004900       0.57918000       0.49007300
   136  C          0.18995100       0.07918000       0.00992700
   137  H          0.14120000       0.48640000       0.52300000
   138  H          0.85880000      -0.01360000       0.97700000
   139  H          0.85880000       0.51360000       0.47700000
   140  H          0.14120000       0.01360000       0.02300000
   141  H          0.16860000       0.33840000       0.47270000
   142  H          0.83140000       0.83840000       0.02730000
   143  H          0.83140000       0.66160000       0.52730000
   144  H          0.16860000       0.16160000       0.97270000
   145  H          0.22880000       0.53970000       0.50330000
   146  H          0.77120000       0.03970000      -0.00330000
   147  H          0.77120000       0.46030000       0.49670000
   148  H          0.22880000       0.96030000       0.00330000
   149  N          0.60277900       0.32532000       0.51238500
   150  N          0.39722100       0.82532000       0.98761500
   151  N          0.39722100       0.67468000       0.48761500
   152  N          0.60277900       0.17468000       0.01238500
   153  C          0.56623900       0.36792000       0.55764600
   154  C          0.43376100       0.86792000       0.94235400
   155  C          0.43376100       0.63208000       0.44235400
   156  C          0.56623900       0.13208000       0.05764600
   157  H          0.54300000       0.51270000       0.56000000
   158  H          0.45700000       0.01270000       0.94000000
   159  H          0.45700000       0.48730000       0.44000000
   160  H          0.54300000      -0.01270000       0.06000000
   161  C          0.55995700       0.21543190       0.60128500
   162  C          0.44004300       0.71543190       0.89871500
   163  C          0.44004300       0.78456810       0.39871500
   164  C          0.55995700       0.28456810       0.10128500
   165  C          0.59228900       0.00312000       0.59693600
   166  C          0.40771100       0.50312000       0.90306400
   167  C          0.40771100      -0.00312000       0.40306400
   168  C          0.59228900       0.49688000       0.09693600
   169  H          0.58900000       0.89240000       0.62580000
   170  H          0.41100000       0.39240000       0.87420000
   171  H          0.41100000       0.10760000       0.37420000
   172  H          0.58900000       0.60760000       0.12580000
   173  C          0.62942900       0.95482000       0.54978700
   174  C          0.37057100       0.45482000       0.95021300
   175  C          0.37057100       0.04518000       0.45021300
   176  C          0.62942900       0.54518000       0.04978700
   177  H          0.65150000       0.81000000       0.54550000
   178  H          0.34850000       0.31000000       0.95450000
   179  H          0.34850000       0.19000000       0.45450000
   180  H          0.65150000       0.69000000       0.04550000
   181  C          0.63376900       0.12062000       0.50924600
   182  C          0.36623100       0.62062000       0.99075400
   183  C          0.36623100       0.87938000       0.49075400
   184  C          0.63376900       0.37938000       0.00924600
   185  H          0.66020000       0.08710000       0.47740000
   186  H          0.33980000       0.58710000       0.02260000
   187  H          0.33980000       0.91290000       0.52260000
   188  H          0.66020000       0.41290000       0.97740000
   189  C          0.52251700       0.28442000       0.65275500
   190  C          0.47748300       0.78442000       0.84724500
   191  C          0.47748300       0.71558000       0.34724500
   192  C          0.52251700       0.21558000       0.15275500
   193  H          0.56830000       0.27880000       0.69000000
   194  H          0.43170000       0.77880000       0.81000000
   195  H          0.43170000       0.72120000       0.31000000
   196  H          0.56830000       0.22120000       0.19000000
   197  H          0.50200000       0.44060000       0.64670000
   198  H          0.49800000       0.94060000       0.85330000
   199  H          0.49800000       0.55940000       0.35330000
   200  H          0.50200000       0.05940000       0.14670000
