data_VILZEY
_symmetry_space_group_name_H-M    'P1'
_symmetry_Int_Tables_number       1
loop_
_symmetry_equiv_pos_site_id
_symmetry_equiv_pos_as_xyz
1 x,y,z
_cell_length_a                   14.6003
_cell_length_b                   10.0072
_cell_length_c                   11.1252
_cell_angle_alpha                90.0
_cell_angle_beta                 92.193
_cell_angle_gamma                90.0
loop_
_atom_site_label
_atom_site_type_symbol
_atom_site_fract_x
_atom_site_fract_y
_atom_site_fract_z
     1  Cl         0.19282000       0.91706000       0.41693000
     2  Cl         0.80718000       0.41706000       0.08307000
     3  Cl         0.80718000       0.08294000       0.58307000
     4  Cl         0.19282000       0.58294000       0.91693000
     5  Cl         0.87958000       0.20744000       0.35493000
     6  Cl         0.12042000       0.70744000       0.14507000
     7  Cl         0.12042000       0.79256000       0.64507000
     8  Cl         0.87958000       0.29256000       0.85493000
     9  Cl         0.38563000       0.15455000       0.86466000
    10  Cl         0.61437000       0.65455000       0.63534000
    11  Cl         0.61437000       0.84545000       0.13534000
    12  Cl         0.38563000       0.34545000       0.36466000
    13  S          0.04832000       0.20213000       0.19013000
    14  S          0.95168000       0.70213000       0.30987000
    15  S          0.95168000       0.79787000       0.80987000
    16  S          0.04832000       0.29787000       0.69013000
    17  O          0.97144000       0.15009000       0.12037000
    18  O          0.02856000       0.65009000       0.37963000
    19  O          0.02856000       0.84991000       0.87963000
    20  O          0.97144000       0.34991000       0.62037000
    21  O          0.04686000       0.33778000       0.23058000
    22  O          0.95314000       0.83778000       0.26942000
    23  O          0.95314000       0.66222000       0.76942000
    24  O          0.04686000       0.16222000       0.73058000
    25  N          0.07677000       0.10001100       0.30199000
    26  N          0.92323000       0.60001100       0.19801000
    27  N          0.92323000       0.89998900       0.69801000
    28  N          0.07677000       0.39998900       0.80199000
    29  C          0.08658000       0.96138700       0.46631100
    30  C          0.91342000       0.46138700       0.03368900
    31  C          0.91342000       0.03861300       0.53368900
    32  C          0.08658000       0.53861300       0.96631100
    33  C          0.03618000       0.06051100       0.39211000
    34  C          0.96382000       0.56051100       0.10789000
    35  C          0.96382000       0.93948900       0.60789000
    36  C          0.03618000       0.43948900       0.89211000
    37  C          0.94532000       0.09461300       0.43291100
    38  C          0.05468000       0.59461300       0.06708900
    39  C          0.05468000       0.90538700       0.56708900
    40  C          0.94532000       0.40538700       0.93291100
    41  C          0.14498000       0.18171300       0.09949000
    42  C          0.85502000       0.68171300       0.40051000
    43  C          0.85502000       0.81828700       0.90051000
    44  C          0.14498000       0.31828700       0.59949000
    45  C          0.14811000       0.08471500       0.01381200
    46  C          0.85189000       0.58471500       0.48618800
    47  C          0.85189000       0.91528500       0.98618800
    48  C          0.14811000       0.41528500       0.51381200
    49  H          0.09746600       0.02395100       0.00437300
    50  H          0.90253400       0.52395100       0.49562700
    51  H          0.90253400       0.97604900      -0.00437300
    52  H          0.09746600       0.47604900       0.50437300
    53  C          0.22171100       0.07341600       0.93998900
    54  C          0.77828900       0.57341600       0.56001100
    55  C          0.77828900       0.92658400       0.06001100
    56  C          0.22171100       0.42658400       0.43998900
    57  H          0.22586700       0.00419200       0.88073400
    58  H          0.77413300       0.50419200       0.61926600
    59  H          0.77413300      -0.00419200       0.11926600
    60  H          0.22586700       0.49580800       0.38073400
    61  C          0.29201000       0.16801700       0.95828600
    62  C          0.70799000       0.66801700       0.54171400
    63  C          0.70799000       0.83198300       0.04171400
    64  C          0.29201000       0.33198300       0.45828600
    65  C          0.28751000       0.26791700       0.03951400
    66  C          0.71249000       0.76791700       0.46048600
    67  C          0.71249000       0.73208300       0.96048600
    68  C          0.28751000       0.23208300       0.53951400
    69  H          0.33603100       0.33244100       0.04682000
    70  H          0.66396900       0.83244100       0.45318000
    71  H          0.66396900       0.66755900       0.95318000
    72  H          0.33603100       0.16755900       0.54682000
    73  C          0.21489000       0.27441500       0.11261100
    74  C          0.78511000       0.77441500       0.38738900
    75  C          0.78511000       0.72558500       0.88738900
    76  C          0.21489000       0.22558500       0.61261100
    77  H          0.21060000       0.34309300       0.17237300
    78  H          0.78940000       0.84309300       0.32762700
    79  H          0.78940000       0.65690700       0.82762700
    80  H          0.21060000       0.15690700       0.67237300
    81  C          0.37821300       0.54680000       0.71608100
    82  C          0.62178700       0.04680000       0.78391900
    83  C          0.62178700       0.45320000       0.28391900
    84  C          0.37821300       0.95320000       0.21608100
    85  H          0.36070400       0.46783200       0.67258000
    86  H          0.63929600       0.96783200       0.82742000
    87  H          0.63929600       0.53216800       0.32742000
    88  H          0.36070400       0.03216800       0.17258000
    89  C          0.35431200       0.66780000       0.66838300
    90  C          0.64568800       0.16780000       0.83161700
    91  C          0.64568800       0.33220000       0.33161700
    92  C          0.35431200       0.83220000       0.16838300
    93  H          0.32322100       0.67298200       0.59091600
    94  H          0.67677900       0.17298200       0.90908400
    95  H          0.67677900       0.32701800       0.40908400
    96  H          0.32322100       0.82701800       0.09091600
    97  C          0.37461500       0.78380000       0.72980000
    98  C          0.62538500       0.28380000       0.77020000
    99  C          0.62538500       0.21620000       0.27020000
   100  C          0.37461500       0.71620000       0.22980000
   101  H          0.35652800       0.86804700       0.69529800
   102  H          0.64347200       0.36804700       0.80470200
   103  H          0.64347200       0.13195300       0.30470200
   104  H          0.35652800       0.63195300       0.19529800
   105  C          0.41891500       0.77880000       0.84080000
   106  C          0.58108500       0.27880000       0.65920000
   107  C          0.58108500       0.22120000       0.15920000
   108  C          0.41891500       0.72120000       0.34080000
   109  H          0.43324600       0.85808900       0.88699800
   110  H          0.56675400       0.35808900       0.61300200
   111  H          0.56675400       0.14191100       0.11300200
   112  H          0.43324600       0.64191100       0.38699800
   113  C          0.44411200       0.65480000       0.88018400
   114  C          0.55588800       0.15480000       0.61981600
   115  C          0.55588800       0.34520000       0.11981600
   116  C          0.44411200       0.84520000       0.38018400
   117  H          0.47755600       0.65043200       0.95606000
   118  H          0.52244400       0.15043200       0.54394000
   119  H          0.52244400       0.34956800       0.04394000
   120  H          0.47755600       0.84956800       0.45606000
   121  C          0.42531300       0.53598100       0.82480000
   122  C          0.57468700       0.03598100       0.67520000
   123  C          0.57468700       0.46401900       0.17520000
   124  C          0.42531300       0.96401900       0.32480000
   125  H          0.44461600       0.45186400       0.85842200
   126  H          0.55538400       0.95186400       0.64157800
   127  H          0.55538400       0.54813600       0.14157800
   128  H          0.44461600       0.04813600       0.35842200
