data_VIPYEB
_symmetry_space_group_name_H-M    'P1'
_symmetry_Int_Tables_number       1
loop_
_symmetry_equiv_pos_site_id
_symmetry_equiv_pos_as_xyz
1 x,y,z
_cell_length_a                   19.56908
_cell_length_b                   5.186611
_cell_length_c                   16.61033
_cell_angle_alpha                90.0
_cell_angle_beta                 117.9653
_cell_angle_gamma                90.0
loop_
_atom_site_label
_atom_site_type_symbol
_atom_site_fract_x
_atom_site_fract_y
_atom_site_fract_z
     1  Cl         0.09683200       0.02553600       0.33978200
     2  Cl         0.90316800       0.02553600       0.16021800
     3  Cl         0.59683200       0.52553600       0.33978200
     4  Cl         0.40316800       0.52553600       0.16021800
     5  Cl         0.90316800      -0.02553600       0.66021800
     6  Cl         0.09683200      -0.02553600       0.83978200
     7  Cl         0.40316800       0.47446400       0.66021800
     8  Cl         0.59683200       0.47446400       0.83978200
     9  O          0.11596500       0.47273170       0.45960600
    10  O          0.88403500       0.47273170       0.04039400
    11  O          0.61596500       0.97273170       0.45960600
    12  O          0.38403500       0.97273170       0.04039400
    13  O          0.88403500       0.52726830       0.54039400
    14  O          0.11596500       0.52726830       0.95960600
    15  O          0.38403500       0.02726830       0.54039400
    16  O          0.61596500       0.02726830       0.95960600
    17  O          0.25729500       0.82514160       0.40485600
    18  O          0.74270500       0.82514160       0.09514400
    19  O          0.75729500       0.32514160       0.40485600
    20  O          0.24270500       0.32514160       0.09514400
    21  O          0.74270500       0.17485840       0.59514400
    22  O          0.25729500       0.17485840       0.90485600
    23  O          0.24270500       0.67485840       0.59514400
    24  O          0.75729500       0.67485840       0.90485600
    25  C          0.17655600       0.36502000       0.47556700
    26  C          0.82344400       0.36502000       0.02443300
    27  C          0.67655600       0.86502000       0.47556700
    28  C          0.32344400       0.86502000       0.02443300
    29  C          0.82344400       0.63498000       0.52443300
    30  C          0.17655600       0.63498000       0.97556700
    31  C          0.32344400       0.13498000       0.52443300
    32  C          0.67655600       0.13498000       0.97556700
    33  C          0.18138600       0.14102000       0.42588700
    34  C          0.81861400       0.14102000       0.07411300
    35  C          0.68138600       0.64102000       0.42588700
    36  C          0.31861400       0.64102000       0.07411300
    37  C          0.81861400       0.85898000       0.57411300
    38  C          0.18138600       0.85898000       0.92588700
    39  C          0.31861400       0.35898000       0.57411300
    40  C          0.68138600       0.35898000       0.92588700
    41  C          0.25018600       0.03022000       0.44779700
    42  C          0.74981400       0.03022000       0.05220300
    43  C          0.75018600       0.53022000       0.44779700
    44  C          0.24981400       0.53022000       0.05220300
    45  C          0.74981400       0.96978000       0.55220300
    46  C          0.25018600       0.96978000       0.94779700
    47  C          0.24981400       0.46978000       0.55220300
    48  C          0.75018600       0.46978000       0.94779700
    49  H          0.30431200       0.77240000       0.42691400
    50  H          0.69568800       0.77240000       0.07308600
    51  H          0.80431200       0.27240000       0.42691400
    52  H          0.19568800       0.27240000       0.07308600
    53  H          0.69568800       0.22760000       0.57308600
    54  H          0.30431200       0.22760000       0.92691400
    55  H          0.19568800       0.72760000       0.57308600
    56  H          0.80431200       0.72760000       0.92691400
    57  O          0.39430500       0.57413170       0.43836600
    58  O          0.60569500       0.57413170       0.06163400
    59  O          0.89430500       0.07413170       0.43836600
    60  O          0.10569500       0.07413170       0.06163400
    61  O          0.60569500       0.42586830       0.56163400
    62  O          0.39430500       0.42586830       0.93836600
    63  O          0.10569500       0.92586830       0.56163400
    64  O          0.89430500       0.92586830       0.93836600
    65  O          0.31705400       0.89703820       0.23989600
    66  O          0.68294600       0.89703820       0.26010400
    67  O          0.81705400       0.39703820       0.23989600
    68  O          0.18294600       0.39703820       0.26010400
    69  O          0.68294600       0.10296180       0.76010400
    70  O          0.31705400       0.10296180       0.73989600
    71  O          0.18294600       0.60296180       0.76010400
    72  O          0.81705400       0.60296180       0.73989600
    73  N          0.46359500       0.26895190       0.40528600
    74  N          0.53640500       0.26895190       0.09471400
    75  N          0.96359500       0.76895190       0.40528600
    76  N          0.03640500       0.76895190       0.09471400
    77  N          0.53640500       0.73104810       0.59471400
    78  N          0.46359500       0.73104810       0.90528600
    79  N          0.03640500       0.23104810       0.59471400
    80  N          0.96359500       0.23104810       0.90528600
    81  N          0.33612500       0.25929180       0.32811600
    82  N          0.66387500       0.25929180       0.17188400
    83  N          0.83612500       0.75929180       0.32811600
    84  N          0.16387500       0.75929180       0.17188400
    85  N          0.66387500       0.74070820       0.67188400
    86  N          0.33612500       0.74070820       0.82811600
    87  N          0.16387500       0.24070820       0.67188400
    88  N          0.83612500       0.24070820       0.82811600
    89  C          0.39913600       0.38692000       0.39566700
    90  C          0.60086400       0.38692000       0.10433300
    91  C          0.89913600       0.88692000       0.39566700
    92  C          0.10086400       0.88692000       0.10433300
    93  C          0.60086400       0.61308000       0.60433300
    94  C          0.39913600       0.61308000       0.89566700
    95  C          0.10086400       0.11308000       0.60433300
    96  C          0.89913600       0.11308000       0.89566700
    97  C          0.35871600       0.05192000       0.29613700
    98  C          0.64128400       0.05192000       0.20386300
    99  C          0.85871600       0.55192000       0.29613700
   100  C          0.14128400       0.55192000       0.20386300
   101  C          0.64128400       0.94808000       0.70386300
   102  C          0.35871600       0.94808000       0.79613700
   103  C          0.14128400       0.44808000       0.70386300
   104  C          0.85871600       0.44808000       0.79613700
   105  C          0.44610600       0.04942000       0.34539800
   106  C          0.55389400       0.04942000       0.15460200
   107  C          0.94610600       0.54942000       0.34539800
   108  C          0.05389400       0.54942000       0.15460200
   109  C          0.55389400       0.95058000       0.65460200
   110  C          0.44610600       0.95058000       0.84539800
   111  C          0.05389400       0.45058000       0.65460200
   112  C          0.94610600       0.45058000       0.84539800
   113  H          0.46630700       0.88776300       0.38026600
   114  H          0.53369300       0.88776300       0.11973400
   115  H          0.96630700       0.38776300       0.38026600
   116  H          0.03369300       0.38776300       0.11973400
   117  H          0.53369300       0.11223700       0.61973400
   118  H          0.46630700       0.11223700       0.88026600
   119  H          0.03369300       0.61223700       0.61973400
   120  H          0.96630700       0.61223700       0.88026600
   121  H          0.46758800       0.07096400       0.30242000
   122  H          0.53241200       0.07096400       0.19758000
   123  H          0.96758800       0.57096400       0.30242000
   124  H          0.03241200       0.57096400       0.19758000
   125  H          0.53241200       0.92903600       0.69758000
   126  H          0.46758800       0.92903600       0.80242000
   127  H          0.03241200       0.42903600       0.69758000
   128  H          0.96758800       0.42903600       0.80242000
   129  H          0.51271200       0.30840000       0.44841500
   130  H          0.48728800       0.30840000       0.05158500
   131  H          0.01271200       0.80840000       0.44841500
   132  H          0.98728800       0.80840000       0.05158500
   133  H          0.48728800       0.69160000       0.55158500
   134  H          0.51271200       0.69160000       0.94841500
   135  H          0.98728800       0.19160000       0.55158500
   136  H          0.01271200       0.19160000       0.94841500
   137  H          0.28611100       0.31340000       0.30551300
   138  H          0.71388900       0.31340000       0.19448700
   139  H          0.78611100       0.81340000       0.30551300
   140  H          0.21388900       0.81340000       0.19448700
   141  H          0.71388900       0.68660000       0.69448700
   142  H          0.28611100       0.68660000       0.80551300
   143  H          0.21388900       0.18660000       0.69448700
   144  H          0.78611100       0.18660000       0.80551300
