data_VIQVUP
_symmetry_space_group_name_H-M    'P1'
_symmetry_Int_Tables_number       1
loop_
_symmetry_equiv_pos_site_id
_symmetry_equiv_pos_as_xyz
1 x,y,z
_cell_length_a                   10.14864
_cell_length_b                   10.70295
_cell_length_c                   11.01705
_cell_angle_alpha                78.3634
_cell_angle_beta                 81.7114
_cell_angle_gamma                62.2004
loop_
_atom_site_label
_atom_site_type_symbol
_atom_site_fract_x
_atom_site_fract_y
_atom_site_fract_z
     1  C          0.80783000       0.30933000       0.43312000
     2  C          0.19217000       0.69067000       0.56688000
     3  C          0.86413000       0.20573000       0.53622000
     4  C          0.13587000       0.79427000       0.46378000
     5  H          0.92770000       0.11100000       0.52700000
     6  H          0.07230000       0.88900000       0.47300000
     7  C          0.82303000       0.24673000       0.65292000
     8  C          0.17697000       0.75327000       0.34708000
     9  H          0.86060000       0.18000000       0.72340000
    10  H          0.13940000       0.82000000       0.27660000
    11  C          0.72593000       0.38743000       0.66372000
    12  C          0.27407000       0.61257000       0.33628000
    13  H          0.69530000       0.41710000       0.74100000
    14  H          0.30470000       0.58290000       0.25900000
    15  C          0.67523000       0.48353000       0.55492000
    16  C          0.32477000       0.51647000       0.44508000
    17  C          0.85292000       0.26693000       0.30562000
    18  C          0.14708000       0.73307000       0.69438000
    19  C          0.85563000       0.34843000       0.08282000
    20  C          0.14437000       0.65157000       0.91718000
    21  H          0.96160000       0.28570000       0.07350000
    22  H          0.03840000       0.71430000       0.92650000
    23  H          0.83510000       0.43850000       0.02910000
    24  H          0.16490000       0.56150000       0.97090000
    25  H          0.77630000       0.45640000       0.22430000
    26  H          0.22370000       0.54360000       0.77570000
    27  H          0.58130000       0.69330000       0.37930000
    28  H          0.41870000       0.30670000       0.62070000
    29  C          0.76863000       0.28113000       0.04282000
    30  C          0.23137000       0.71887000       0.95718000
    31  C          0.84223000       0.16293000       0.98288000
    32  C          0.15777000       0.83707000       0.01712000
    33  H          0.94440000       0.12690000       0.96400000
    34  H          0.05560000       0.87310000       0.03600000
    35  C          0.76463000       0.09703000       0.95028000
    36  C          0.23537000       0.90297000       0.04972000
    37  H          0.81520000       0.01610000       0.91180000
    38  H          0.18480000       0.98390000       0.08820000
    39  C          0.61143000       0.15293000       0.97568000
    40  C          0.38857000       0.84707000       0.02432000
    41  H          0.55910000       0.10960000       0.95380000
    42  H          0.44090000       0.89040000       0.04620000
    43  C          0.53633000       0.27333000       0.03362000
    44  C          0.46367000       0.72667000       0.96638000
    45  H          0.43350000       0.31180000       0.04940000
    46  H          0.56650000       0.68820000       0.95060000
    47  C          0.61533000       0.33653000       0.06792000
    48  C          0.38467000       0.66347000       0.93208000
    49  H          0.56510000       0.41630000       0.10800000
    50  H          0.43490000       0.58370000       0.89200000
    51  C          0.56903000       0.63773000       0.56322000
    52  C          0.43097000       0.36227000       0.43678000
    53  C          0.40123000       0.94453000       0.34832000
    54  C          0.59877000       0.05547000       0.65168000
    55  H          0.43960000       0.90590000       0.27520000
    56  H          0.56040000       0.09410000       0.72480000
    57  C          0.29873000       0.09803000       0.34452000
    58  C          0.70127000       0.90197000       0.65548000
    59  C          0.25783000       0.18503000       0.23002000
    60  C          0.74217000       0.81497000       0.76998000
    61  H          0.29540000       0.14730000       0.15640000
    62  H          0.70460000       0.85270000       0.84360000
    63  C          0.15953000       0.32933000       0.22822000
    64  C          0.84047000       0.67067000       0.77178000
    65  H          0.12920000       0.38970000       0.15330000
    66  H          0.87080000       0.61030000       0.84670000
    67  C          0.10803000       0.38133000       0.33923000
    68  C          0.89197000       0.61867000       0.66077000
    69  H          0.04330000       0.47750000       0.34080000
    70  H          0.95670000       0.52250000       0.65920000
    71  C          0.15463000       0.28723000       0.44873000
    72  C          0.84537000       0.71277000       0.55127000
    73  H          0.11920000       0.32310000       0.52320000
    74  H          0.88080000       0.67690000       0.47680000
    75  N          0.71512000       0.44692000       0.44079190
    76  N          0.28488000       0.55308000       0.55920810
    77  N          0.81632000       0.37362000       0.21152000
    78  N          0.18368000       0.62638000       0.78848000
    79  N          0.53142000       0.72322000       0.45197190
    80  N          0.46858000       0.27678000       0.54802810
    81  N          0.43662000       0.86532000       0.45380190
    82  N          0.56338000       0.13468000       0.54619810
    83  N          0.24752000       0.14792000       0.45332000
    84  N          0.75248000       0.85208000       0.54668000
    85  O          0.92052190       0.13850180       0.29287170
    86  O          0.07947810       0.86149820       0.70712830
    87  O          0.52148190       0.67899190       0.66376160
    88  O          0.47851810       0.32100810       0.33623840
    89  I          0.78102200       0.73168200       0.16171200
    90  I          0.21897800       0.26831800       0.83828800
    91  H          0.29630000       0.01230000       0.75120000
    92  H          0.70370000      -0.01230000       0.24880000
    93  H          0.37320000       0.88511900       0.69030000
    94  H          0.62680000       0.11488100       0.30970000
    95  H          0.21130000       0.95430000       0.71230000
    96  H          0.78870000       0.04570000       0.28770000
    97  H          0.28930000       0.01730000       0.62181500
    98  H          0.71070000       0.98270000       0.37818500
    99  N          0.29332000       0.96532000       0.69532000
   100  N          0.70668000       0.03468000       0.30468000
