data_VIRKIU
_symmetry_space_group_name_H-M    'P1'
_symmetry_Int_Tables_number       1
loop_
_symmetry_equiv_pos_site_id
_symmetry_equiv_pos_as_xyz
1 x,y,z
_cell_length_a                   4.02412
_cell_length_b                   7.30143
_cell_length_c                   20.09011
_cell_angle_alpha                97.0984
_cell_angle_beta                 92.0874
_cell_angle_gamma                90.6633
loop_
_atom_site_label
_atom_site_type_symbol
_atom_site_fract_x
_atom_site_fract_y
_atom_site_fract_z
     1  O          0.56462000       0.61667120       0.73906400
     2  O          0.43538000       0.38332880       0.26093600
     3  O          0.57433000       0.39225120       0.80593500
     4  O          0.42567000       0.60774880       0.19406500
     5  C          0.89633000       0.85074170       0.84758600
     6  C          0.10367000       0.14925830       0.15241400
     7  H          0.81682200       0.90642000       0.80988700
     8  H          0.18317800       0.09358000       0.19011300
     9  C          0.07473000       0.96768170       0.90087600
    10  C          0.92527000       0.03231830       0.09912400
    11  H          0.16477800       0.91273000       0.93787600
    12  H          0.83522200       0.08727000       0.06212400
    13  C          0.64593000       0.55979160       0.79194600
    14  C          0.35407000       0.44020840       0.20805400
    15  C          0.11863000       0.14875170       0.90053600
    16  C          0.88137000       0.85124830       0.09946400
    17  H          0.02910600       0.20145900       0.86297000
    18  H         -0.02910600       0.79854100       0.13703000
    19  C          0.83513000       0.67071170       0.84735600
    20  C          0.16487000       0.32928830       0.15264400
    21  H          0.91628000       0.61185800       0.88416000
    22  H          0.08372000       0.38814200       0.11584000
    23  C          0.29734000       0.27522190       0.95454700
    24  C          0.70266000       0.72477810       0.04545300
    25  H          0.48419700       0.33565600       0.93555900
    26  H          0.51580300       0.66434400       0.06444100
    27  H          0.38108800       0.20407900       0.98972000
    28  H          0.61891200       0.79592100       0.01028000
    29  H          0.14405500       0.36897000       0.97380100
    30  H          0.85594500       0.63103000       0.02619900
    31  H          0.44560000       0.31940000       0.76711300
    32  H          0.55440000       0.68060000       0.23288700
    33  O          0.67767000       0.27344130       0.50294400
    34  O          0.32233000       0.72655870       0.49705600
    35  N          0.62647000       0.50115140       0.58924500
    36  N          0.37353000       0.49884860       0.41075500
    37  N          0.22193000       0.19315140       0.70983500
    38  N          0.77807000       0.80684860       0.29016500
    39  C          0.05923000       0.29320150       0.66817600
    40  C          0.94077000       0.70679850       0.33182400
    41  H          0.05909400       0.42357700       0.67905200
    42  H          0.94090600       0.57642300       0.32094800
    43  C          0.88977000       0.21568150       0.60958500
    44  C          0.11023000       0.78431850       0.39041500
    45  C          0.72097000       0.33260150       0.56294600
    46  C          0.27903000       0.66739850       0.43705400
    47  C          0.89537000       0.02493160       0.59310600
    48  C          0.10463000       0.97506840       0.40689400
    49  H          0.78904100       0.96748600       0.55275800
    50  H          0.21095900       0.03251400       0.44724200
    51  C          0.21913000       0.00856160       0.69429600
    52  C          0.78087000      -0.00856160       0.30570400
    53  H          0.33095100       0.93588800       0.72392400
    54  H          0.66904900       0.06411200       0.27607600
    55  C          0.05953000       0.92058840       0.63676600
    56  C          0.94047000       0.07941160       0.36323400
    57  H          0.06223000       0.78989100       0.62728100
    58  H          0.93777000       0.21010900       0.37271900
    59  H          0.52450000       0.57530000       0.56169000
    60  H          0.47550000       0.42470000       0.43831000
    61  H          0.62760000       0.53030000       0.63429000
    62  H          0.37240000       0.46970000       0.36571000
