data_VIRSUM
_symmetry_space_group_name_H-M    'P1'
_symmetry_Int_Tables_number       1
loop_
_symmetry_equiv_pos_site_id
_symmetry_equiv_pos_as_xyz
1 x,y,z
_cell_length_a                   5.4791012
_cell_length_b                   13.36432
_cell_length_c                   18.97943
_cell_angle_alpha                107.316515
_cell_angle_beta                 94.677217
_cell_angle_gamma                92.716916
loop_
_atom_site_label
_atom_site_type_symbol
_atom_site_fract_x
_atom_site_fract_y
_atom_site_fract_z
     1  C          0.92867000       0.43818110       0.70405200
     2  C          0.07133000       0.56181890       0.29594800
     3  C          0.05727000       0.39197120       0.64379200
     4  C          0.94273000       0.60802880       0.35620800
     5  C         -0.01163000       0.40014130       0.57446200
     6  C          0.01163000       0.59985870       0.42553800
     7  C          0.79047000       0.45431130       0.56164100
     8  C          0.20953000       0.54568870       0.43835900
     9  H          0.74390000       0.45980000       0.51370000
    10  H          0.25610000       0.54020000       0.48630000
    11  C          0.66237000       0.50037120       0.62116100
    12  C          0.33763000       0.49962880       0.37883900
    13  C          0.72987000       0.49266120       0.69119200
    14  C          0.27013000       0.50733880       0.30880800
    15  F          0.25320820       0.33793800       0.65261500
    16  F          0.74679180       0.66206200       0.34738500
    17  F          0.12018000       0.35428900       0.51803500
    18  F          0.87982000       0.64571100       0.48196500
    19  F          0.46752810       0.55488800       0.61175400
    20  F          0.53247190       0.44511200       0.38824600
    21  F          0.59723820       0.53904800       0.74662500
    22  F          0.40276180       0.46095200       0.25337500
    23  I          0.04171682       0.42457070       0.80903550
    24  I          0.95828318       0.57542930       0.19096450
    25  C          0.24957000       0.40102120       0.00722800
    26  C          0.75043000       0.59897880      -0.00722800
    27  H          0.11650000       0.43960000       0.02690000
    28  H          0.88350000       0.56040000       0.97310000
    29  C          0.40507000       0.36589120       0.05503800
    30  C          0.59493000       0.63410880       0.94496200
    31  H          0.37760000       0.38070000       0.10580000
    32  H          0.62240000       0.61930000       0.89420000
    33  C          0.60277000       0.30845110       0.02765800
    34  C          0.39723000       0.69154890       0.97234200
    35  C          0.63007000       0.29102130       0.95241100
    36  C          0.36993000       0.70897870       0.04758900
    37  H          0.76140000       0.25290000       0.93100000
    38  H          0.23860000       0.74710000       0.06900000
    39  C          0.46657000       0.32913130       0.90935100
    40  C          0.53343000       0.67086870       0.09064900
    41  H          0.48990000       0.31600000       0.85840000
    42  H          0.51010000       0.68400000       0.14160000
    43  C          0.77907000       0.26729120       0.07262800
    44  C          0.22093000       0.73270880       0.92737200
    45  H          0.89770000       0.22420000       0.04760000
    46  H          0.10230000       0.77580000       0.95240000
    47  C          0.78527000       0.28594110       0.14618800
    48  C          0.21473000       0.71405890       0.85381200
    49  H          0.66190000       0.32720000       0.17000000
    50  H          0.33810000       0.67280000       0.83000000
    51  C          0.96127000       0.24975110       0.19410800
    52  C          0.03873000       0.75024890       0.80589200
    53  C          0.92897000       0.27330110       0.26926800
    54  C          0.07103000       0.72669890       0.73073200
    55  H          0.79450000       0.31210000       0.28750000
    56  H          0.20550000       0.68790000       0.71250000
    57  C          0.08793000       0.24168120       0.31838800
    58  C          0.91207000       0.75831880       0.68161200
    59  H          0.06170000       0.25880000       0.36930000
    60  H          0.93830000       0.74120000       0.63070000
    61  C          0.28573000       0.18478110       0.29211800
    62  C          0.71427000       0.81521890       0.70788200
    63  C          0.32193000       0.16025120       0.21670800
    64  C          0.67807000       0.83974880       0.78329200
    65  H          0.45640000       0.12150000       0.19850000
    66  H          0.54360000       0.87850000       0.80150000
    67  C          0.16213000       0.19243120       0.16873800
    68  C          0.83787000       0.80756880       0.83126200
    69  H          0.18870000       0.17550000       0.11780000
    70  H          0.81130000       0.82450000       0.88220000
    71  C          0.42673000       0.17677120       0.41260800
    72  C          0.57327000       0.82322880       0.58739200
    73  H          0.26710000       0.14570000       0.42030000
    74  H          0.73290000       0.85430000       0.57970000
    75  H          0.43050000       0.25400000       0.43430000
    76  H          0.56950000       0.74600000       0.56570000
    77  C          0.63513000       0.13445120       0.45009800
    78  C          0.36487000       0.86554880       0.54990200
    79  H          0.79320000       0.16970000       0.44530000
    80  H          0.20680000       0.83030000       0.55470000
    81  H          0.63930000       0.05820000       0.42510000
    82  H          0.36070000       0.94180000       0.57490000
    83  C          0.60463000       0.15261120       0.53213800
    84  C          0.39537000       0.84738880       0.46786200
    85  H          0.44800000       0.11590000       0.53650000
    86  H          0.55200000       0.88410000       0.46350000
    87  H          0.59450000       0.22870000       0.55640000
    88  H          0.40550000       0.77130000       0.44360000
    89  C          0.81403000       0.11416120       0.57311800
    90  C          0.18597000       0.88583880       0.42688200
    91  H          0.82760000       0.03860000       0.54790000
    92  H          0.17240000       0.96140000       0.45210000
    93  H          0.97000000       0.15250000       0.57020000
    94  H          0.03000000       0.84750000       0.42980000
    95  C          0.77963000       0.12919120       0.65438800
    96  C          0.22037000       0.87080880       0.34561200
    97  H          0.62280000       0.09130000       0.65730000
    98  H          0.37720000       0.90870000       0.34270000
    99  H          0.76700000       0.20490000       0.67960000
   100  H          0.23300000       0.79510000       0.32040000
   101  C         -0.01327000       0.09031120       0.69568800
   102  C          0.01327000       0.90968880       0.30431200
   103  H          0.00200000       0.01500000       0.66990000
   104  H         -0.00200000       0.98500000       0.33010000
   105  H          0.14310000       0.12940000       0.69400000
   106  H          0.85690000       0.87060000       0.30600000
   107  C          0.94663000       0.10350120       0.77636800
   108  C          0.05337000       0.89649880       0.22363200
   109  H          0.78550000       0.06780000       0.77790000
   110  H          0.21450000       0.93220000       0.22210000
   111  H          0.94000000       0.17930000       0.80260000
   112  H          0.06000000       0.82070000       0.19740000
   113  C          0.14473000       0.05972120       0.81762800
   114  C          0.85527000       0.94027880       0.18237200
   115  H          0.14310000       0.98290000       0.79390000
   116  H          0.85690000       0.01710000       0.20610000
   117  H          0.30740000       0.09160000       0.81320000
   118  H          0.69260000       0.90840000       0.18680000
   119  C          0.11033000       0.08081120       0.89942800
   120  C          0.88967000       0.91918880       0.10057200
   121  H          0.12240000       0.15770000       0.92370000
   122  H          0.87760000       0.84230000       0.07630000
   123  H          0.94330000       0.05310000       0.90380000
   124  H          0.05670000       0.94690000       0.09620000
   125  C          0.29673000       0.03181130       0.94014900
   126  C          0.70327000       0.96818870       0.05985100
   127  H          0.26330000       0.04750000       0.99210000
   128  H          0.73670000       0.95250000       0.00790000
   129  H          0.46240000       0.06080000       0.93770000
   130  H          0.53760000       0.93920000       0.06230000
   131  H          0.28460000       0.95550000       0.91690000
   132  H          0.71540000       0.04450000       0.08310000
   133  N          0.27608000       0.38382100       0.93537300
   134  N          0.72392000       0.61617900       0.06462700
   135  O          0.45412000       0.15023900       0.33501600
   136  O          0.54588000       0.84976100       0.66498400
