data_VITKEP
_symmetry_space_group_name_H-M    'P1'
_symmetry_Int_Tables_number       1
loop_
_symmetry_equiv_pos_site_id
_symmetry_equiv_pos_as_xyz
1 x,y,z
_cell_length_a                   6.86168
_cell_length_b                   7.65898
_cell_length_c                   34.6324
_cell_angle_alpha                90.0
_cell_angle_beta                 90.0
_cell_angle_gamma                90.0
loop_
_atom_site_label
_atom_site_type_symbol
_atom_site_fract_x
_atom_site_fract_y
_atom_site_fract_z
     1  N          0.08404000       0.12583000       0.12967700
     2  N          0.41596000       0.87417000       0.62967700
     3  N          0.91596000       0.62583000       0.37032300
     4  N          0.58404000       0.37417000       0.87032300
     5  C          0.89575000       0.05093000       0.13919900
     6  C          0.60425000       0.94907000       0.63919900
     7  C          0.10425000       0.55093000       0.36080100
     8  C          0.39575000       0.44907000       0.86080100
     9  H          0.89960000       0.00380000       0.16550000
    10  H          0.60040000      -0.00380000       0.66550000
    11  H          0.10040000       0.50380000       0.33450000
    12  H          0.39960000       0.49620000       0.83450000
    13  H          0.86550000       0.95680000       0.12100000
    14  H          0.63450000       0.04320000       0.62100000
    15  H          0.13450000       0.45680000       0.37900000
    16  H          0.36550000       0.54320000       0.87900000
    17  H          0.79530000       0.14140000       0.13750000
    18  H          0.70470000       0.85860000       0.63750000
    19  H          0.20470000       0.64140000       0.36250000
    20  H          0.29530000       0.35860000       0.86250000
    21  C          0.21975000       0.19863000       0.15342800
    22  C          0.28025000       0.80137000       0.65342800
    23  C          0.78025000       0.69863000       0.34657200
    24  C          0.71975000       0.30137000       0.84657200
    25  N          0.38024000       0.24163000       0.13510600
    26  N          0.11976000       0.75837000       0.63510600
    27  N          0.61976000       0.74163000       0.36489400
    28  N          0.88024000       0.25837000       0.86489400
    29  C          0.34935000       0.19383000       0.09689700
    30  C          0.15065000       0.80617000       0.59689700
    31  C          0.65065000       0.69383000       0.40310300
    32  C          0.84935000       0.30617000       0.90310300
    33  C          0.47266000       0.20764000       0.06520800
    34  C          0.02734000       0.79236000       0.56520800
    35  C          0.52734000       0.70764000       0.43479200
    36  C          0.97266000       0.29236000       0.93479200
    37  H          0.59830000       0.25860000       0.06750000
    38  H          0.90170000       0.74140000       0.56750000
    39  H          0.40170000       0.75860000       0.43250000
    40  H          0.09830000       0.24140000       0.93250000
    41  C          0.40636000       0.14504000       0.03063900
    42  C          0.09364000       0.85496000       0.53063900
    43  C          0.59364000       0.64504000       0.46936100
    44  C          0.90636000       0.35496000       0.96936100
    45  H          0.48780000       0.15170000       0.00850000
    46  H          0.01220000       0.84830000       0.50850000
    47  H          0.51220000       0.65170000       0.49150000
    48  H         -0.01220000       0.34830000       0.99150000
    49  C          0.22076000       0.07124000       0.02730900
    50  C          0.27924000       0.92876000       0.52730900
    51  C          0.77924000       0.57124000       0.47269100
    52  C          0.72076000       0.42876000       0.97269100
    53  H          0.17950000       0.02840000       0.00290000
    54  H          0.32050000       0.97160000       0.50290000
    55  H          0.82050000       0.52840000       0.49710000
    56  H          0.67950000       0.47160000      -0.00290000
    57  C          0.09676000       0.05863000       0.05806900
    58  C          0.40324000       0.94137000       0.55806900
    59  C          0.90324000       0.55863000       0.44193100
    60  C          0.59676000       0.44137000       0.94193100
    61  H          0.97030000       0.00940000       0.05550000
    62  H          0.52970000      -0.00940000       0.55550000
    63  H          0.02970000       0.50940000       0.44450000
    64  H          0.47030000       0.49060000       0.94450000
    65  C          0.16485000       0.12163000       0.09322800
    66  C          0.33515000       0.87837000       0.59322800
    67  C          0.83515000       0.62163000       0.40677200
    68  C          0.66485000       0.37837000       0.90677200
    69  N          0.16185000       0.29844000       0.27374800
    70  N          0.33815000       0.70156000       0.77374800
    71  N          0.83815000       0.79844000       0.22625200
    72  N          0.66185000       0.20156000       0.72625200
    73  C          0.32616000       0.24155000       0.25831900
    74  C          0.17384000       0.75845000       0.75831900
    75  C          0.67384000       0.74155000       0.24168100
    76  C          0.82616000       0.25845000       0.74168100
    77  H          0.43430000       0.22460000       0.27500000
    78  H          0.06570000       0.77540000       0.77500000
    79  H          0.56570000       0.72460000       0.22500000
    80  H          0.93430000       0.27540000       0.72500000
    81  C          0.35135000       0.20484000       0.21953800
    82  C          0.14865000       0.79516000       0.71953800
    83  C          0.64865000       0.70484000       0.28046200
    84  C          0.85135000       0.29516000       0.78046200
    85  H          0.47290000       0.16440000       0.20990000
    86  H          0.02710000       0.83560000       0.70990000
    87  H          0.52710000       0.66440000       0.29010000
    88  H          0.97290000       0.33560000       0.79010000
    89  C          0.19325000       0.22883000       0.19499800
    90  C          0.30675000       0.77117000       0.69499800
    91  C          0.80675000       0.72883000       0.30500200
    92  C          0.69325000       0.27117000       0.80500200
    93  C          0.01885000       0.28574000       0.21090800
    94  C          0.48115000       0.71426000       0.71090800
    95  C         -0.01885000       0.78574000       0.28909200
    96  C          0.51885000       0.21426000       0.78909200
    97  H          0.90600000       0.30070000       0.19530000
    98  H          0.59400000       0.69930000       0.69530000
    99  H          0.09400000       0.80070000       0.30470000
   100  H          0.40600000       0.19930000       0.80470000
   101  C          0.01397000       0.31984000       0.24992900
   102  C          0.48603000       0.68016000       0.74992900
   103  C         -0.01397000       0.81984000       0.25007100
   104  C          0.51397000       0.18016000       0.75007100
   105  H          0.89510000       0.36190000       0.26050000
   106  H          0.60490000       0.63810000       0.76050000
   107  H          0.10490000       0.86190000       0.23950000
   108  H          0.39510000       0.13810000       0.73950000
   109  C          0.08815000       0.62033000       0.11658800
   110  C          0.41185000       0.37967000       0.61658800
   111  C          0.91185000       0.12033000       0.38341200
   112  C          0.58815000       0.87967000       0.88341200
   113  C          0.92044000       0.58343000       0.14095800
   114  C          0.57956000       0.41657000       0.64095800
   115  C          0.07956000       0.08343000       0.35904200
   116  C          0.42044000       0.91657000       0.85904200
   117  H          0.91200000       0.63910000       0.16540000
   118  H          0.58800000       0.36090000       0.66540000
   119  H          0.08800000       0.13910000       0.33460000
   120  H          0.41200000       0.86090000       0.83460000
   121  N          0.78504000       0.48013000       0.13102700
   122  N          0.71496000       0.51987000       0.63102700
   123  N          0.21496000       0.98013000       0.36897300
   124  N          0.28504000       0.01987000       0.86897300
   125  O          0.64773000       0.46733000       0.16050600
   126  O          0.85227000       0.53267000       0.66050600
   127  O          0.35227000       0.96733000       0.33949400
   128  O          0.14773000       0.03267000       0.83949400
   129  H          0.54850000       0.39440000       0.15159000
   130  H          0.95150000       0.60560000       0.65159000
   131  H          0.45150000       0.89440000       0.34841000
   132  H          0.04850000       0.10560000       0.84841000
   133  C          0.10505000       0.57823000       0.07748900
   134  C          0.39495000       0.42177000       0.57748900
   135  C          0.89495000       0.07823000       0.42251100
   136  C          0.60505000       0.92177000       0.92251100
   137  F          0.95743000       0.49952000       0.05925500
   138  F          0.54257000       0.50048000       0.55925500
   139  F          0.04257000      -0.00048000       0.44074500
   140  F          0.45743000       0.00048000       0.94074500
   141  C          0.26716000       0.61934000       0.05658900
   142  C          0.23284000       0.38066000       0.55658900
   143  C          0.73284000       0.11934000       0.44341100
   144  C          0.76716000       0.88066000       0.94341100
   145  F          0.27604000       0.57703000       0.01905600
   146  F          0.22396000       0.42297000       0.51905600
   147  F          0.72396000       0.07703000       0.48094400
   148  F          0.77604000       0.92297000       0.98094400
   149  C          0.41986000       0.70174000       0.07368110
   150  C          0.08014000       0.29826000       0.57368110
   151  C          0.58014000       0.20174000       0.42631890
   152  C          0.91986000       0.79826000       0.92631890
   153  F          0.58103000       0.74053000       0.05357700
   154  F          0.91897000       0.25947000       0.55357700
   155  F          0.41897000       0.24053000       0.44642300
   156  F          0.08103000       0.75947000       0.94642300
   157  C          0.40965000       0.74654000       0.11225110
   158  C          0.09035000       0.25346000       0.61225110
   159  C          0.59035000       0.24654000       0.38774890
   160  C          0.90965000       0.75346000       0.88774890
   161  F          0.55603000       0.83102000       0.12918700
   162  F          0.94397000       0.16898000       0.62918700
   163  F          0.44397000       0.33102000       0.37081300
   164  F          0.05603000       0.66898000       0.87081300
   165  C          0.24665000       0.70453000       0.13258900
   166  C          0.25335000       0.29547000       0.63258900
   167  C          0.75335000       0.20453000       0.36741100
   168  C          0.74665000       0.79547000       0.86741100
   169  F          0.24033000       0.75092000       0.16985500
   170  F          0.25967000       0.24908000       0.66985500
   171  F          0.75967000       0.25092000       0.33014500
   172  F          0.74033000       0.74908000       0.83014500
