data_VIWFIU
_symmetry_space_group_name_H-M    'P1'
_symmetry_Int_Tables_number       1
loop_
_symmetry_equiv_pos_site_id
_symmetry_equiv_pos_as_xyz
1 x,y,z
_cell_length_a                   13.39198
_cell_length_b                   7.70304
_cell_length_c                   17.898713
_cell_angle_alpha                90.0
_cell_angle_beta                 97.7423
_cell_angle_gamma                90.0
loop_
_atom_site_label
_atom_site_type_symbol
_atom_site_fract_x
_atom_site_fract_y
_atom_site_fract_z
     1  N          0.22121100       0.10895190       0.13959800
     2  N          0.77878900       0.60895190       0.36040200
     3  N          0.77878900       0.89104810       0.86040200
     4  N          0.22121100       0.39104810       0.63959800
     5  N          0.25335100       0.38044180       0.17345800
     6  N          0.74664900       0.88044180       0.32654200
     7  N          0.74664900       0.61955820       0.82654200
     8  N          0.25335100       0.11955820       0.67345800
     9  N          0.11518110       0.24162000       0.21634900
    10  N          0.88481890       0.74162000       0.28365100
    11  N          0.88481890       0.75838000       0.78365100
    12  N          0.11518110       0.25838000       0.71634900
    13  C          0.19260120       0.24408190       0.17792900
    14  C          0.80739880       0.74408190       0.32207100
    15  C          0.80739880       0.75591810       0.82207100
    16  C          0.19260120       0.25591810       0.67792900
    17  C          0.32086120       0.34812000       0.11669100
    18  C          0.67913880       0.84812000       0.38330900
    19  C          0.67913880       0.65188000       0.88330900
    20  C          0.32086120       0.15188000       0.61669100
    21  C          0.31363120       0.14732000       0.10724100
    22  C          0.68636880       0.64732000       0.39275900
    23  C          0.68636880       0.85268000       0.89275900
    24  C          0.31363120       0.35268000       0.60724100
    25  C          0.30791120       0.08316190       0.02723900
    26  C          0.69208880       0.58316190       0.47276100
    27  C          0.69208880       0.91683810       0.97276100
    28  C          0.30791120       0.41683810       0.52723900
    29  C          0.23273130       0.14262000       0.97154900
    30  C          0.76726870       0.64262000       0.52845100
    31  C          0.76726870       0.85738000       0.02845100
    32  C          0.23273130       0.35738000       0.47154900
    33  C          0.22581140       0.07982000       0.89854890
    34  C          0.77418860       0.57982000       0.60145110
    35  C          0.77418860       0.92018000       0.10145110
    36  C          0.22581140       0.42018000       0.39854890
    37  C          0.29432140       0.95728000       0.87980890
    38  C          0.70567860       0.45728000       0.62019110
    39  C          0.70567860       0.04272000       0.12019110
    40  C          0.29432140       0.54272000       0.37980890
    41  C          0.36849150       0.89808000       0.93445890
    42  C          0.63150850       0.39808000       0.56554110
    43  C          0.63150850       0.10192000       0.06554110
    44  C          0.36849150       0.60192000       0.43445890
    45  C          0.37557130       0.95968000       0.00791100
    46  C          0.62442870       0.45968000       0.49208900
    47  C          0.62442870       0.04032000       0.99208900
    48  C          0.37557130       0.54032000       0.50791100
    49  C          0.42740120       0.41352000       0.13957900
    50  C          0.57259880       0.91352000       0.36042100
    51  C          0.57259880       0.58648000       0.86042100
    52  C          0.42740120       0.08648000       0.63957900
    53  C          0.46818130       0.53362000       0.09424110
    54  C          0.53181870       0.03362000       0.40575890
    55  C          0.53181870       0.46638000       0.90575890
    56  C          0.46818130       0.96638000       0.59424110
    57  C          0.56786140       0.58912000       0.11227110
    58  C          0.43213860       0.08912000       0.38772890
    59  C          0.43213860       0.41088000       0.88772890
    60  C          0.56786140       0.91088000       0.61227110
    61  C          0.62667140       0.52232000       0.17482110
    62  C          0.37332860       0.02232000       0.32517890
    63  C          0.37332860       0.47768000       0.82517890
    64  C          0.62667140       0.97768000       0.67482110
    65  C          0.58664130       0.40312000       0.22045110
    66  C          0.41335870       0.90312000       0.27954890
    67  C          0.41335870       0.59688000       0.77954890
    68  C          0.58664130       0.09688000       0.72045110
    69  C          0.48712120       0.35022000       0.20373100
    70  C          0.51287880       0.85022000       0.29626900
    71  C          0.51287880       0.64978000       0.79626900
    72  C          0.48712120       0.14978000       0.70373100
    73  H          0.29581100       0.40681800       0.06908000
    74  H          0.70418900       0.90681800       0.43092000
    75  H          0.70418900       0.59318200       0.93092000
    76  H          0.29581100       0.09318200       0.56908000
    77  H          0.45911100       0.27001900       0.23829000
    78  H          0.54088900       0.77001900       0.26171000
    79  H          0.54088900       0.72998100       0.76171000
    80  H          0.45911100       0.22998100       0.73829000
    81  H          0.17291400       0.12220000       0.86079000
    82  H          0.82708600       0.62220000       0.63921000
    83  H          0.82708600       0.87780000       0.13921000
    84  H          0.17291400       0.37780000       0.36079000
    85  H          0.36951200       0.09161900       0.13698000
    86  H          0.63048800       0.59161900       0.36302000
    87  H          0.63048800       0.90838100       0.86302000
    88  H          0.36951200       0.40838100       0.63698000
    89  H          0.09211300       0.34020000       0.23221000
    90  H          0.90788700       0.84020000       0.26779000
    91  H          0.90788700       0.65980000       0.76779000
    92  H          0.09211300       0.15980000       0.73221000
    93  H          0.62201300       0.35520000       0.26381000
    94  H          0.37798700       0.85520000       0.23619000
    95  H          0.37798700       0.64480000       0.73619000
    96  H          0.62201300       0.14480000       0.76381000
    97  H          0.42791300       0.91680000       0.04599000
    98  H          0.57208700       0.41680000       0.45401000
    99  H          0.57208700       0.08320000       0.95401000
   100  H          0.42791300       0.58320000       0.54599000
   101  H          0.69691400       0.55220000       0.18771000
   102  H          0.30308600       0.05220000       0.31229000
   103  H          0.30308600       0.44780000       0.81229000
   104  H          0.69691400       0.94780000       0.68771000
   105  H          0.18691200       0.23221900       0.98522000
   106  H          0.81308800       0.73221900       0.51478000
   107  H          0.81308800       0.76778100       0.01478000
   108  H          0.18691200       0.26778100       0.48522000
   109  H          0.20491300       0.00920000       0.14869000
   110  H          0.79508700       0.50920000       0.35131000
   111  H          0.79508700      -0.00920000       0.85131000
   112  H          0.20491300       0.49080000       0.64869000
   113  H          0.23451300       0.48620000       0.17961000
   114  H          0.76548700      -0.01380000       0.32039000
   115  H          0.76548700       0.51380000       0.82039000
   116  H          0.23451300       0.01380000       0.67961000
   117  H          0.41401300       0.81280000       0.92299000
   118  H          0.58598700       0.31280000       0.57701000
   119  H          0.58598700       0.18720000       0.07701000
   120  H          0.41401300       0.68720000       0.42299000
   121  H          0.42731300       0.57820000       0.05141000
   122  H          0.57268700       0.07820000       0.44859000
   123  H          0.57268700       0.42180000       0.94859000
   124  H          0.42731300       0.92180000       0.55141000
   125  H          0.28861300       0.91580000       0.82658900
   126  H          0.71138700       0.41580000       0.67341100
   127  H          0.71138700       0.08420000       0.17341100
   128  H          0.28861300       0.58420000       0.32658900
   129  H          0.59711300       0.67420000       0.07921000
   130  H          0.40288700       0.17420000       0.42079000
   131  H          0.40288700       0.32580000       0.92079000
   132  H          0.59711300       0.82580000       0.57921000
   133  H          0.07961300       0.14720000       0.21691000
   134  H          0.92038700       0.64720000       0.28309000
   135  H          0.92038700       0.85280000       0.78309000
   136  H          0.07961300       0.35280000       0.71691000
   137  O          0.19416800       0.74981130       0.18653700
   138  O          0.80583200       0.24981130       0.31346300
   139  O          0.80583200       0.25018870       0.81346300
   140  O          0.19416800       0.75018870       0.68653700
   141  O          0.07990900       0.61237140       0.23897700
   142  O          0.92009100       0.11237140       0.26102300
   143  O          0.92009100       0.38762860       0.76102300
   144  O          0.07990900       0.88762860       0.73897700
   145  O          0.04909800       0.87138130       0.19341700
   146  O          0.95090200       0.37138130       0.30658300
   147  O          0.95090200       0.12861870       0.80658300
   148  O          0.04909800       0.62861870       0.69341700
   149  N          0.10688100       0.74455160       0.20637800
   150  N          0.89311900       0.24455160       0.29362200
   151  N          0.89311900       0.25544840       0.79362200
   152  N          0.10688100       0.75544840       0.70637800
   153  O          0.12116900       0.98057160       0.53178700
   154  O          0.87883100       0.48057160       0.96821300
   155  O          0.87883100       0.01942840       0.46821300
   156  O          0.12116900       0.51942840       0.03178700
   157  C          0.09661120       0.87942000       0.47976110
   158  C          0.90338880       0.37942000       0.02023890
   159  C          0.90338880       0.12058000       0.52023890
   160  C          0.09661120       0.62058000       0.97976110
   161  C          0.11466190       0.92093000       0.40079130
   162  C          0.88533810       0.42093000       0.09920870
   163  C          0.88533810       0.07907000       0.59920870
   164  C          0.11466190       0.57907000       0.90079130
   165  C          0.04648170       0.71153000       0.49188140
   166  C          0.95351830       0.21153000       0.00811860
   167  C          0.95351830       0.28847000       0.50811860
   168  C          0.04648170       0.78847000       0.99188140
   169  H          0.98288100       0.70130000       0.45541300
   170  H          0.01711900       0.20130000       0.04458700
   171  H          0.01711900       0.29870000       0.54458700
   172  H          0.98288100       0.79870000       0.95541300
   173  H          0.02861500       0.70320000       0.54121200
   174  H          0.97138500       0.20320000       0.95878800
   175  H          0.97138500       0.29680000       0.45878800
   176  H          0.02861500       0.79680000       0.04121200
   177  H          0.09061600       0.61930000       0.48321100
   178  H          0.90938400       0.11930000       0.01678900
   179  H          0.90938400       0.38070000       0.51678900
   180  H          0.09061600       0.88070000       0.98321100
   181  H          0.13381400       0.81730000       0.37491100
   182  H          0.86618600       0.31730000       0.12508900
   183  H          0.86618600       0.18270000       0.62508900
   184  H          0.13381400       0.68270000       0.87491100
   185  H          0.16181700       0.00830000       0.39981200
   186  H          0.83818300       0.50830000       0.10018800
   187  H          0.83818300      -0.00830000       0.60018800
   188  H          0.16181700       0.49170000       0.89981200
   189  H          0.05420000       0.97530000       0.37491400
   190  H          0.94580000       0.47530000       0.12508600
   191  H          0.94580000       0.02470000       0.62508600
   192  H          0.05420000       0.52470000       0.87491400
