data_VIXRIF
_symmetry_space_group_name_H-M    'P1'
_symmetry_Int_Tables_number       1
loop_
_symmetry_equiv_pos_site_id
_symmetry_equiv_pos_as_xyz
1 x,y,z
_cell_length_a                   4.506301
_cell_length_b                   8.14573
_cell_length_c                   13.12035
_cell_angle_alpha                80.3122
_cell_angle_beta                 84.3652
_cell_angle_gamma                80.2142
loop_
_atom_site_label
_atom_site_type_symbol
_atom_site_fract_x
_atom_site_fract_y
_atom_site_fract_z
     1  I          0.06076400       0.73182200       0.05845713
     2  I          0.93923600       0.26817800       0.94154287
     3  O          0.73664000       0.35663000       0.43188150
     4  O          0.26336000       0.64337000       0.56811850
     5  O          0.93766000       0.73593000       0.31257150
     6  O          0.06234000       0.26407000       0.68742850
     7  N          0.66065000       0.39103000       0.26073180
     8  N          0.33935000       0.60897000       0.73926820
     9  H          0.81650000       0.31230000       0.25220000
    10  H          0.18350000       0.68770000       0.74780000
    11  N          0.34055000       0.54783000       0.36899180
    12  N          0.65945000       0.45217000       0.63100820
    13  H          0.29570000       0.57440000       0.43111600
    14  H          0.70430000       0.42560000       0.56888400
    15  C          0.58946000       0.42813000       0.35902000
    16  C          0.41054000       0.57187000       0.64098000
    17  C          0.16296000       0.63693000       0.29102000
    18  C          0.83704000       0.36307000       0.70898000
    19  C          0.27096000       0.59843000       0.18872000
    20  C          0.72904000       0.40157000       0.81128000
    21  C          0.50816000       0.47634000       0.17832000
    22  C          0.49184000       0.52366000       0.82168000
    23  H          0.57150000       0.44860000       0.11120000
    24  H          0.42850000       0.55140000       0.88880000
    25  O          0.11535000       0.17723000       0.17192150
    26  O          0.88465000       0.82277000       0.82807850
    27  N          0.43496000      -0.00713000       0.27632000
    28  N          0.56504000       0.00713000       0.72368000
    29  H          0.60050000       0.91560000       0.27530000
    30  H          0.39950000       0.08440000       0.72470000
    31  C          0.34257000       0.06924000       0.18602000
    32  C          0.65743000       0.93076000       0.81398000
    33  H          0.47560000       0.03440000       0.13021900
    34  H          0.52440000       0.96560000       0.86978100
    35  C          0.27178000       0.02394000       0.37402000
    36  C          0.72822000       0.97606000       0.62598000
    37  H          0.29810000       0.13470000       0.38810000
    38  H          0.70190000       0.86530000       0.61190000
    39  H          0.35010000       0.93650000       0.42990000
    40  H          0.64990000       0.06350000       0.57010000
    41  H          0.05660000       0.02140000       0.36980000
    42  H          0.94340000       0.97860000       0.63020000
