data_VIXXAE
_symmetry_space_group_name_H-M    'P1'
_symmetry_Int_Tables_number       1
loop_
_symmetry_equiv_pos_site_id
_symmetry_equiv_pos_as_xyz
1 x,y,z
_cell_length_a                   9.65297
_cell_length_b                   9.67605
_cell_length_c                   11.89407
_cell_angle_alpha                81.2585
_cell_angle_beta                 88.5755
_cell_angle_gamma                72.5376
loop_
_atom_site_label
_atom_site_type_symbol
_atom_site_fract_x
_atom_site_fract_y
_atom_site_fract_z
     1  I          0.07490700       0.05219700       0.27590500
     2  I          0.92509300       0.94780300       0.72409500
     3  I          0.82950800       0.70127700       0.11019600
     4  I          0.17049200       0.29872300       0.88980400
     5  I          0.66022700       0.26198700       0.87310500
     6  I          0.33977300       0.73801300       0.12689500
     7  F          0.01266000       0.39856000       0.24765000
     8  F          0.98734000       0.60144000       0.75235000
     9  F          0.67767000       0.56346000       0.94155000
    10  F          0.32233000       0.43654000       0.05845000
    11  F          0.85986000       0.06105000       0.07694000
    12  F          0.14014000       0.93895000       0.92306000
    13  C          0.93528000       0.22669000       0.16717000
    14  C          0.06472000       0.77331000       0.83283000
    15  C          0.92999000       0.36979000       0.17067000
    16  C          0.07001000       0.63021000       0.82933000
    17  C          0.84079000       0.48709000       0.09757000
    18  C          0.15921000       0.51291000       0.90243000
    19  C          0.76109000       0.45219000       0.01567000
    20  C          0.23891000       0.54781000       0.98433000
    21  C          0.76459000       0.31209000       0.00726000
    22  C          0.23541000       0.68791000      -0.00726000
    23  C          0.85059000       0.20218000       0.08347000
    24  C          0.14941000       0.79782000       0.91653000
    25  N          0.71527000       0.26137000       0.57945000
    26  N          0.28473000       0.73863000       0.42055000
    27  N          0.54517000       0.10097000       0.68445000
    28  N          0.45483000       0.89903000       0.31555000
    29  C          0.79109000       0.34629000       0.53168000
    30  C          0.20891000       0.65371000       0.46832000
    31  C          0.75191000       0.43931000       0.42617000
    32  C          0.24809000       0.56069000       0.57383000
    33  H          0.80710000       0.49970000       0.39640000
    34  H          0.19290000       0.50030000       0.60360000
    35  C          0.63211000       0.43849000       0.36937000
    36  C          0.36789000       0.56151000       0.63063000
    37  H          0.60650000       0.49560000       0.29840000
    38  H          0.39350000       0.50440000       0.70160000
    39  C          0.54609000       0.35028000       0.41816000
    40  C          0.45391000       0.64972000       0.58184000
    41  C          0.41641000       0.34549000       0.36237000
    42  C          0.58359000       0.65451000       0.63763000
    43  H          0.38690000       0.40250000       0.29190000
    44  H          0.61310000       0.59750000       0.70810000
    45  C          0.33921000       0.26049000       0.41037000
    46  C          0.66079000       0.73951000       0.58963000
    47  H          0.25780000       0.25650000       0.37240000
    48  H          0.74220000       0.74350000       0.62760000
    49  C          0.38078000       0.17448000       0.52077000
    50  C          0.61922000       0.82552000       0.47923000
    51  C          0.30069000       0.08331000       0.57308000
    52  C          0.69931000       0.91669000       0.42692000
    53  H          0.22000000       0.07590000       0.53590000
    54  H          0.78000000       0.92410000       0.46410000
    55  C          0.34279000       0.00561000       0.67928000
    56  C          0.65721000      -0.00561000       0.32072000
    57  H          0.28970000       0.94660000       0.71570000
    58  H          0.71030000       0.05340000       0.28430000
    59  C          0.46789000       0.01609000       0.73277000
    60  C          0.53211000       0.98391000       0.26723000
    61  C          0.50268000       0.17768000       0.57956000
    62  C          0.49732000       0.82232000       0.42044000
    63  C          0.59128000       0.26548000       0.52446000
    64  C          0.40872000       0.73452000       0.47554000
    65  C          0.92491100       0.34591200       0.59451000
    66  C          0.07508900       0.65408800       0.40549000
    67  H          0.90160000       0.42770000       0.63560000
    68  H          0.09840000       0.57230000       0.36440000
    69  H         -0.00060000       0.35340000       0.54110000
    70  H          0.00060000       0.64660000       0.45890000
    71  H          0.95870000       0.25640000       0.64690000
    72  H          0.04130000       0.74360000       0.35310000
    73  C          0.51811200       0.92748800       0.84628000
    74  C          0.48188800       0.07251200       0.15372000
    75  H          0.60020000       0.95120000       0.87260000
    76  H          0.39980000       0.04880000       0.12740000
    77  H          0.54560000       0.82510000       0.83990000
    78  H          0.45440000       0.17490000       0.16010000
    79  H          0.44090000       0.94920000       0.89940000
    80  H          0.55910000       0.05080000       0.10060000
