data_VIZNAT
_symmetry_space_group_name_H-M    'P1'
_symmetry_Int_Tables_number       1
loop_
_symmetry_equiv_pos_site_id
_symmetry_equiv_pos_as_xyz
1 x,y,z
_cell_length_a                   8.2662
_cell_length_b                   18.0574
_cell_length_c                   10.9642
_cell_angle_alpha                90.0
_cell_angle_beta                 107.492
_cell_angle_gamma                90.0
loop_
_atom_site_label
_atom_site_type_symbol
_atom_site_fract_x
_atom_site_fract_y
_atom_site_fract_z
     1  Br         0.64441000       0.46946700       0.82921000
     2  Br         0.85559000       0.96946700       0.17079000
     3  Br         0.35559000       0.53053300       0.17079000
     4  Br         0.14441000       0.03053300       0.82921000
     5  Cl         0.39954000       0.40102000       0.98053000
     6  Cl         0.10046000       0.90102000       0.01947000
     7  Cl         0.60046000       0.59898000       0.01947000
     8  Cl         0.89954000       0.09898000       0.98053000
     9  C          0.57104000       0.07862000       0.34253000
    10  C          0.92896000       0.57862000       0.65747000
    11  C          0.42896000       0.92138000       0.65747000
    12  C          0.07104000       0.42138000       0.34253000
    13  C          0.71215000       0.04452000       0.43444000
    14  C          0.78785000       0.54452000       0.56556000
    15  C          0.28785000       0.95548000       0.56556000
    16  C          0.21215000       0.45548000       0.43444000
    17  C          0.80905000       0.08332000       0.53363000
    18  C          0.69095000       0.58332000       0.46637000
    19  C          0.19095000       0.91668000       0.46637000
    20  C          0.30905000       0.41668000       0.53363000
    21  C          0.77944000       0.15942000       0.54913000
    22  C          0.72056000       0.65942000       0.45087000
    23  C          0.22056000       0.84058000       0.45087000
    24  C          0.27944000       0.34058000       0.54913000
    25  C          0.87085000       0.19913000       0.65784000
    26  C          0.62915000       0.69913000       0.34216000
    27  C          0.12915000       0.80087000       0.34216000
    28  C          0.37085000       0.30087000       0.65784000
    29  C          0.84466000       0.27393000       0.66634000
    30  C          0.65534000       0.77393000       0.33366000
    31  C          0.15534000       0.72607000       0.33366000
    32  C          0.34466000       0.22607000       0.66634000
    33  C          0.73135000       0.31082000       0.56994000
    34  C          0.76865000       0.81082000       0.43006000
    35  C          0.26865000       0.68918000       0.43006000
    36  C          0.23135000       0.18918000       0.56994000
    37  C          0.63955000       0.27402000       0.45813000
    38  C          0.86045000       0.77402000       0.54187000
    39  C          0.36045000       0.72598000       0.54187000
    40  C          0.13955000       0.22598000       0.45813000
    41  C          0.52265000       0.31152000       0.35524000
    42  C          0.97735000       0.81152000       0.64476000
    43  C          0.47735000       0.68848000       0.64476000
    44  C          0.02265000       0.18848000       0.35524000
    45  C          0.44855000       0.27652000       0.24444000
    46  C          0.05145000       0.77652000       0.75556000
    47  C          0.55145000       0.72348000       0.75556000
    48  C          0.94855000       0.22348000       0.24444000
    49  C          0.48174000       0.20002000       0.22623000
    50  C          0.01826000       0.70002000       0.77377000
    51  C          0.51826000       0.79998000       0.77377000
    52  C         -0.01826000       0.29998000       0.22623000
    53  C          0.56814000       0.15762000       0.33513000
    54  C          0.93186000       0.65762000       0.66487000
    55  C          0.43186000       0.84238000       0.66487000
    56  C          0.06814000       0.34238000       0.33513000
    57  C          0.66104000       0.19672000       0.44733000
    58  C          0.83896000       0.69672000       0.55267000
    59  C          0.33896000       0.80328000       0.55267000
    60  C          0.16104000       0.30328000       0.44733000
    61  N          0.44353000       0.03642000       0.27443000
    62  N          0.05647000       0.53642000       0.72557000
    63  N          0.55647000       0.96358000       0.72557000
    64  N          0.94353000       0.46358000       0.27443000
    65  N          0.43944000       0.17332000       0.10613000
    66  N          0.06056000       0.67332000       0.89387000
    67  N          0.56056000       0.82668000       0.89387000
    68  N          0.93944000       0.32668000       0.10613000
    69  C          0.46405000       0.95608000       0.26874000
    70  C          0.03595000       0.45608000       0.73126000
    71  C          0.53595000       0.04392000       0.73126000
    72  C          0.96405000       0.54392000       0.26874000
    73  C          0.27135000       0.06342000       0.21684000
    74  C          0.22865000       0.56342000       0.78316000
    75  C          0.72865000       0.93658000       0.78316000
    76  C          0.77135000       0.43658000       0.21684000
    77  C          0.31715000       0.21113000      -0.00044000
    78  C          0.18285000       0.71113000       0.00044000
    79  C          0.68285000       0.78887000       0.00044000
    80  C          0.81715000       0.28887000      -0.00044000
    81  C          0.52985000       0.11262000       0.06883000
    82  C          0.97015000       0.61262000       0.93117000
    83  C          0.47015000       0.88738000       0.93117000
    84  C          0.02985000       0.38738000       0.06883000
    85  H          0.73330000      -0.00720000       0.43220000
    86  H          0.76670000       0.49280000       0.56780000
    87  H          0.26670000       0.00720000       0.56780000
    88  H          0.23330000       0.50720000       0.43220000
    89  H          0.89730000       0.05420000       0.59630000
    90  H          0.60270000       0.55420000       0.40370000
    91  H          0.10270000       0.94580000       0.40370000
    92  H          0.39730000       0.44580000       0.59630000
    93  H          0.95540000       0.16820000       0.72330000
    94  H          0.54460000       0.66820000       0.27670000
    95  H          0.04460000       0.83180000       0.27670000
    96  H          0.45540000       0.33180000       0.72330000
    97  H          0.90440000       0.30020000       0.74030000
    98  H          0.59560000       0.80020000       0.25970000
    99  H          0.09560000       0.69980000       0.25970000
   100  H          0.40440000       0.19980000       0.74030000
   101  H          0.69940000       0.36720000       0.57130000
   102  H          0.80060000       0.86720000       0.42870000
   103  H          0.30060000       0.63280000       0.42870000
   104  H          0.19940000       0.13280000       0.57130000
   105  H          0.49740000       0.36820000       0.36630000
   106  H          0.00260000       0.86820000       0.63370000
   107  H          0.50260000       0.63180000       0.63370000
   108  H         -0.00260000       0.13180000       0.36630000
   109  H          0.37940000       0.30520000       0.17530000
   110  H          0.12060000       0.80520000       0.82470000
   111  H          0.62060000       0.69480000       0.82470000
   112  H          0.87940000       0.19480000       0.17530000
   113  H          0.36940000       0.93980000       0.20730000
   114  H          0.13060000       0.43980000       0.79270000
   115  H          0.63060000       0.06020000       0.79270000
   116  H          0.86940000       0.56020000       0.20730000
   117  H          0.57850000       0.94380000       0.24430000
   118  H          0.92150000       0.44380000       0.75570000
   119  H          0.42150000       0.05620000       0.75570000
   120  H          0.07850000       0.55620000       0.24430000
   121  H          0.46840000       0.93580000       0.35430000
   122  H          0.03160000       0.43580000       0.64570000
   123  H          0.53160000       0.06420000       0.64570000
   124  H          0.96840000       0.56420000       0.35430000
   125  H          0.18240000       0.02220000       0.23830000
   126  H          0.31760000       0.52220000       0.76170000
   127  H          0.81760000       0.97780000       0.76170000
   128  H          0.68240000       0.47780000       0.23830000
   129  H          0.26230000       0.10720000       0.25430000
   130  H          0.23770000       0.60720000       0.74570000
   131  H          0.73770000       0.89280000       0.74570000
   132  H          0.76230000       0.39280000       0.25430000
   133  H          0.24740000       0.06820000       0.13030000
   134  H          0.25260000       0.56820000       0.86970000
   135  H          0.75260000       0.93180000       0.86970000
   136  H          0.74740000       0.43180000       0.13030000
   137  H          0.27440000       0.17320000       0.92370000
   138  H          0.22560000       0.67320000       0.07630000
   139  H          0.72560000       0.82680000       0.07630000
   140  H          0.77440000       0.32680000       0.92370000
   141  H          0.22740000       0.22420000       0.02630000
   142  H          0.27260000       0.72420000       0.97370000
   143  H          0.77260000       0.77580000       0.97370000
   144  H          0.72740000       0.27580000       0.02630000
   145  H          0.37650000       0.25420000       0.96960000
   146  H          0.12350000       0.75420000       0.03040000
   147  H          0.62350000       0.74580000       0.03040000
   148  H          0.87650000       0.24580000       0.96960000
   149  H          0.55330000       0.12720000      -0.00730000
   150  H          0.94670000       0.62720000       0.00730000
   151  H          0.44670000       0.87280000       0.00730000
   152  H          0.05330000       0.37280000      -0.00730000
   153  H          0.64340000       0.09920000       0.13730000
   154  H          0.85660000       0.59920000       0.86270000
   155  H          0.35660000       0.90080000       0.86270000
   156  H          0.14340000       0.40080000       0.13730000
   157  H          0.45750000       0.06120000       0.04440000
   158  H          0.04250000       0.56120000       0.95560000
   159  H          0.54250000       0.93880000       0.95560000
   160  H          0.95750000       0.43880000       0.04440000
