data_VOBDID
_symmetry_space_group_name_H-M    'P1'
_symmetry_Int_Tables_number       1
loop_
_symmetry_equiv_pos_site_id
_symmetry_equiv_pos_as_xyz
1 x,y,z
_cell_length_a                   9.9632
_cell_length_b                   10.0562
_cell_length_c                   10.1752
_cell_angle_alpha                89.3454
_cell_angle_beta                 77.8564
_cell_angle_gamma                76.5384
loop_
_atom_site_label
_atom_site_type_symbol
_atom_site_fract_x
_atom_site_fract_y
_atom_site_fract_z
     1  Br         0.60915900       0.57106800       0.77938800
     2  Br         0.39084100       0.42893200       0.22061200
     3  O          0.91185000       0.06285000       0.22295000
     4  O          0.08815000       0.93715000       0.77705000
     5  H          0.88260000       0.01500000       0.28290000
     6  H          0.11740000       0.98500000       0.71710000
     7  O          0.25095000       0.24945000       0.02725000
     8  O          0.74905000       0.75055000       0.97275000
     9  O          0.10596000       0.54737000       0.72267000
    10  O          0.89404000       0.45263000       0.27733000
    11  N          0.98594000       0.20656000       0.01905000
    12  N          0.01406000       0.79344000       0.98095000
    13  H          0.04020000       0.16320000       0.06880000
    14  H          0.95980000       0.83680000       0.93120000
    15  N          0.21566000       0.40556000       0.86375000
    16  N          0.78434000       0.59444000       0.13625000
    17  C          0.85553000       0.17147000       0.03306000
    18  C          0.14447000       0.82853000       0.96694000
    19  C          0.81883000       0.09547000       0.14256000
    20  C          0.18117000       0.90453000       0.85744000
    21  C          0.69182000       0.05727000       0.16448000
    22  C          0.30818000       0.94273000       0.83552000
    23  H          0.66740000       0.00520000       0.23780000
    24  H          0.33260000      -0.00520000       0.76220000
    25  C          0.60142000       0.09568000       0.07868000
    26  C          0.39858000       0.90432000       0.92132000
    27  H          0.51420000       0.07310000       0.09560000
    28  H          0.48580000       0.92690000       0.90440000
    29  C          0.64102000       0.16738000       0.96788000
    30  C          0.35898000       0.83262000       0.03212000
    31  H          0.58210000       0.19010000       0.90720000
    32  H          0.41790000       0.80990000       0.09280000
    33  C          0.76612000       0.20548000       0.94547000
    34  C          0.23388000       0.79452000       0.05453000
    35  H          0.79140000       0.25480000       0.87020000
    36  H          0.20860000       0.74520000       0.12980000
    37  C          0.03806000       0.29647000       0.94026000
    38  C          0.96194000       0.70353000       0.05974000
    39  C          0.18217000       0.30967000       0.95246000
    40  C          0.81783000       0.69033000       0.04754000
    41  C          0.10188000       0.45908000       0.80288000
    42  C          0.89812000       0.54092000       0.19712000
    43  C         -0.00647000       0.38668000       0.85177000
    44  C          0.00647000       0.61332000       0.14823000
    45  H          0.90730000       0.40020000       0.82610000
    46  H          0.09270000       0.59980000       0.17390000
    47  C          0.34357000       0.45258000       0.84137000
    48  C          0.65643000       0.54742000       0.15863000
    49  H          0.38600000       0.43240000       0.91890000
    50  H          0.61400000       0.56760000       0.08110000
    51  H          0.32030000       0.55110000       0.83390000
    52  H          0.67970000       0.44890000       0.16610000
    53  C          0.45007000       0.38926000       0.71736000
    54  C          0.54993000       0.61074000       0.28264000
    55  C          0.57136000       0.43486000       0.67606000
    56  C          0.42864000       0.56514000       0.32394000
    57  C          0.66828000       0.38458000       0.55938000
    58  C          0.33172000       0.61542000       0.44062000
    59  H          0.74790000       0.41940000       0.53240000
    60  H          0.25210000       0.58060000       0.46760000
    61  C          0.64679000       0.28439000       0.48428000
    62  C          0.35321000       0.71561000       0.51572000
    63  H          0.71140000       0.24990000       0.40530000
    64  H          0.28860000       0.75010000       0.59470000
    65  C          0.52869000       0.23428000       0.52568000
    66  C          0.47131000       0.76572000       0.47432000
    67  H          0.51450000       0.16380000       0.47570000
    68  H          0.48550000       0.83620000       0.52430000
    69  C          0.43017000       0.28767000       0.64137000
    70  C          0.56983000       0.71233000       0.35863000
    71  H          0.34960000       0.25370000       0.66730000
    72  H          0.65040000       0.74630000       0.33270000
    73  O          0.81653000       0.91074000       0.41106000
    74  O          0.18347000       0.08926000       0.58894000
    75  C          0.90618500       0.69858700       0.53801500
    76  C          0.09381500       0.30141300       0.46198500
    77  H          0.97390000       0.64870000       0.46320000
    78  H          0.02610000       0.35130000       0.53680000
    79  H          0.81560000       0.67970000       0.54050000
    80  H          0.18440000       0.32030000       0.45950000
    81  H          0.93580000       0.67130000       0.62010000
    82  H          0.06420000       0.32870000       0.37990000
    83  C          0.77028400       0.93068400       0.66401200
    84  C          0.22971600       0.06931600       0.33598800
    85  H          0.75330000       0.02870000       0.67020000
    86  H          0.24670000       0.97130000       0.32980000
    87  H          0.80430000       0.89260000       0.74110000
    88  H          0.19570000       0.10740000       0.25890000
    89  H          0.68390000       0.90530000       0.66100000
    90  H          0.31610000       0.09470000       0.33900000
    91  S          0.89407000       0.86946000       0.52063000
    92  S          0.10593000       0.13054000       0.47937000
