data_VOBYET
_symmetry_space_group_name_H-M    'P1'
_symmetry_Int_Tables_number       1
loop_
_symmetry_equiv_pos_site_id
_symmetry_equiv_pos_as_xyz
1 x,y,z
_cell_length_a                   7.71453
_cell_length_b                   11.21375
_cell_length_c                   13.04975
_cell_angle_alpha                85.6603
_cell_angle_beta                 82.0893
_cell_angle_gamma                70.0704
loop_
_atom_site_label
_atom_site_type_symbol
_atom_site_fract_x
_atom_site_fract_y
_atom_site_fract_z
     1  F          0.37111110       0.84969700       0.18615600
     2  F          0.62888890       0.15030300       0.81384400
     3  F          0.62910120       0.65989700       0.86651500
     4  F          0.37089880       0.34010300       0.13348500
     5  O          0.49927160       0.91501900       0.89571800
     6  O          0.50072840       0.08498100       0.10428200
     7  O          0.24919140       0.94161900       0.00271900
     8  O          0.75080860       0.05838100      -0.00271900
     9  O          0.93238170       0.18435100       0.28342900
    10  O          0.06761830       0.81564900       0.71657100
    11  N          0.77283140       0.42078900       0.17923700
    12  N          0.22716860       0.57921100       0.82076300
    13  N          0.41015140       0.88097900       0.97022800
    14  N          0.58984860       0.11902100       0.02977200
    15  C          0.49951140       0.76235900       0.02337800
    16  C          0.50048860       0.23764100       0.97662200
    17  C          0.67847140       0.53073900       0.12795800
    18  C          0.32152860       0.46926100       0.87204200
    19  C          0.47581140       0.74870100       0.13072800
    20  C          0.52418860       0.25129900       0.86927200
    21  C          0.69907150       0.54091100       0.01892800
    22  C          0.30092850       0.45908900       0.98107200
    23  H          0.77250000       0.46960000       0.97920000
    24  H          0.22750000       0.53040000       0.02080000
    25  C          0.61228150       0.65465100       0.97049800
    26  C          0.38771850       0.34534900       0.02950200
    27  C          0.56155150       0.63825100       0.18298800
    28  C          0.43844850       0.36174900       0.81701200
    29  H          0.54230000       0.63390000       0.25650000
    30  H          0.45770000       0.36610000       0.74350000
    31  C          0.70812000       0.39717120       0.28680900
    32  C          0.29188000       0.60282880       0.71319100
    33  H          0.60110000       0.36690000       0.28940000
    34  H          0.39890000       0.63310000       0.71060000
    35  H          0.66630000       0.47720000       0.32470000
    36  H          0.33370000       0.52280000       0.67530000
    37  C          0.86632000       0.30459130       0.12289110
    38  C          0.13368000       0.69540870       0.87710890
    39  H          0.92820000       0.32500000       0.05560000
    40  H          0.07180000       0.67500000       0.94440000
    41  H          0.77310000       0.26720000       0.10880000
    42  H          0.22690000       0.73280000       0.89120000
    43  C          0.00872000       0.20874150       0.18272140
    44  C         -0.00872000       0.79125850       0.81727860
    45  H          0.06030000       0.12850000       0.14490000
    46  H          0.93970000       0.87150000       0.85510000
    47  H          0.11200000       0.24080000       0.18740000
    48  H          0.88800000       0.75920000       0.81260000
    49  C          0.86143000       0.29929150       0.33786130
    50  C          0.13857000       0.70070850       0.66213870
    51  H          0.96320000       0.33330000       0.34110000
    52  H          0.03680000       0.66670000       0.65890000
    53  H          0.81330000       0.28180000       0.40970000
    54  H          0.18670000       0.71820000       0.59030000
    55  F          0.56961130       0.79579800       0.67813600
    56  F          0.43038870       0.20420200       0.32186400
    57  F          0.73659130       0.14900800       0.55979800
    58  F          0.26340870       0.85099200       0.44020200
    59  O          0.09717120       0.69213800       0.15051600
    60  O          0.90282880       0.30786200       0.84948400
    61  O          0.63340170       0.66220100       0.42688800
    62  O          0.36659830       0.33779900       0.57311200
    63  N          0.88028130       0.80129800       0.33540700
    64  N          0.11971870       0.19870200       0.66459300
    65  O          0.77091180       0.58970900       0.56321800
    66  O          0.22908820       0.41029100       0.43678200
    67  N          0.71032150       0.67401900       0.49906700
    68  N          0.28967850       0.32598100       0.50093300
    69  C          0.80761140       0.85939900       0.42989800
    70  C          0.19238860       0.14060100       0.57010200
    71  C          0.03756160       0.68151900       0.33770800
    72  C          0.96243840       0.31848100       0.66229200
    73  H          0.01220000       0.62680000       0.39690000
    74  H          0.98780000       0.37320000       0.60310000
    75  H          0.15170000       0.69940000       0.34650000
    76  H          0.84830000       0.30060000       0.65350000
    77  C          0.72869150       0.79747900       0.51126800
    78  C          0.27130850       0.20252100       0.48873200
    79  C          0.80684150       0.98088100       0.44843900
    80  C          0.19315850       0.01911900       0.55156100
    81  H          0.85830000       0.02700000       0.39610000
    82  H          0.14170000       0.97300000       0.60390000
    83  C          0.65248160       0.85561110       0.60518800
    84  C          0.34751840       0.14438890       0.39481200
    85  C          0.91358160       0.88194100       0.24667800
    86  C          0.08641840       0.11805900       0.75332200
    87  H          0.02400000       0.90560000       0.25320000
    88  H          0.97600000       0.09440000       0.74680000
    89  H          0.80520000       0.96070000       0.24400000
    90  H          0.19480000       0.03930000       0.75600000
    91  C          0.06513170       0.61407100       0.23750800
    92  C          0.93486830       0.38592900       0.76249200
    93  H          0.17240000       0.53440000       0.23830000
    94  H          0.82760000       0.46560000       0.76170000
    95  H          0.95350000       0.59170000       0.23130000
    96  H          0.04650000       0.40830000       0.76870000
    97  C          0.94509160       0.80856110       0.14859800
    98  C          0.05490840       0.19143890       0.85140200
    99  H          0.83100000       0.79010000       0.14070000
   100  H          0.16900000       0.20990000       0.85930000
   101  H          0.97000000       0.86160000       0.08800000
   102  H          0.03000000       0.13840000       0.91200000
   103  C          0.65089170       0.97488110       0.62397900
   104  C          0.34910830       0.02511890       0.37602100
   105  H          0.59840000       0.01450000       0.68810000
   106  H          0.40160000       0.98550000       0.31190000
   107  C          0.73025160       0.03295110       0.54379100
   108  C          0.26974840       0.96704890       0.45620900
