data_VOBZAQ
_symmetry_space_group_name_H-M    'P1'
_symmetry_Int_Tables_number       1
loop_
_symmetry_equiv_pos_site_id
_symmetry_equiv_pos_as_xyz
1 x,y,z
_cell_length_a                   9.96684
_cell_length_b                   10.08853
_cell_length_c                   13.01594
_cell_angle_alpha                79.5613
_cell_angle_beta                 83.2663
_cell_angle_gamma                62.6613
loop_
_atom_site_label
_atom_site_type_symbol
_atom_site_fract_x
_atom_site_fract_y
_atom_site_fract_z
     1  C          0.85795800       0.25380900       0.18778600
     2  C          0.14204200       0.74619100       0.81221400
     3  C          0.79090800       0.35422900       0.26306600
     4  C          0.20909200       0.64577100       0.73693400
     5  C          0.63243800       0.42672900       0.27254600
     6  C          0.36756200       0.57327100       0.72745400
     7  H          0.58666900       0.48971700       0.32336500
     8  H          0.41333100       0.51028300       0.67663500
     9  C          0.53989800       0.40805800       0.20836600
    10  C          0.46010200       0.59194200       0.79163400
    11  C          0.60911900       0.30430900       0.13589600
    12  C          0.39088100       0.69569100       0.86410400
    13  H          0.55117700       0.28666400       0.09403700
    14  H          0.44882300       0.71333600       0.90596300
    15  C          0.76377900       0.23058900       0.12909600
    16  C          0.23622100       0.76941100       0.87090400
    17  C          0.30930900       0.56020100       0.30734700
    18  C          0.69069100       0.43979900       0.69265300
    19  H          0.36971400       0.59923900       0.33292100
    20  H          0.63028600       0.40076100       0.66707900
    21  H          0.30110300       0.48428300       0.36166800
    22  H          0.69889700       0.51571700       0.63833200
    23  C          0.15388900       0.68647110       0.28418800
    24  C          0.84611100       0.31352890       0.71581200
    25  H          0.10484000       0.72643500       0.34819900
    26  H          0.89516000       0.27356500       0.65180100
    27  H          0.16296300       0.76711500       0.23535000
    28  H          0.83703700       0.23288500       0.76465000
    29  C          0.13345100       0.58131120       0.14573800
    30  C          0.86654900       0.41868880       0.85426200
    31  H          0.14110800       0.66250000       0.09667100
    32  H          0.85889200       0.33750000       0.90332900
    33  H          0.07077800       0.54898300       0.11563400
    34  H          0.92922200       0.45101700       0.88436600
    35  C          0.28925100       0.45109110       0.16094800
    36  C          0.71074900       0.54890890       0.83905200
    37  H          0.28091800       0.36468500       0.20212900
    38  H          0.71908200       0.63531500       0.79787100
    39  H          0.33603600       0.42323400       0.09345500
    40  H          0.66396400       0.57676600       0.90654500
    41  C          0.01628110       0.26196120       0.36894800
    42  C          0.98371890       0.73803880       0.63105200
    43  H          0.03812800       0.16920900       0.34509500
    44  H          0.96187200       0.83079100       0.65490500
    45  H          0.00578900       0.24974400       0.44386700
    46  H         -0.00578900       0.75025600       0.55613300
    47  H          0.09733700       0.28834300       0.34681800
    48  H          0.90266300       0.71165700       0.65318200
    49  C          0.80417100       0.50837110       0.38349700
    50  C          0.19582900       0.49162890       0.61650300
    51  H          0.73342000       0.59452400       0.34030800
    52  H          0.26658000       0.40547600       0.65969200
    53  H          0.87970900       0.53134600       0.40399300
    54  H          0.12029100       0.46865400       0.59600700
    55  H          0.75189100       0.48312700       0.44467500
    56  H          0.24810900       0.51687300       0.55532500
    57  N          0.01740800       0.18938900       0.15934600
    58  N          0.98259200       0.81061100       0.84065400
    59  N          0.87625800       0.38104800       0.32506600
    60  N          0.12374200       0.61895200       0.67493400
    61  N          0.38437700       0.49116800       0.21396500
    62  N          0.61562300       0.50883200       0.78603500
    63  O          0.08313800       0.05635900       0.14589800
    64  O          0.91686200       0.94364100       0.85410200
    65  O          0.08041900       0.27222100       0.14790600
    66  O          0.91958100       0.72777900       0.85209400
    67  O          0.06274700       0.63645800       0.24086600
    68  O          0.93725300       0.36354200       0.75913400
    69  F          0.82786600       0.13460700       0.05785400
    70  F          0.17213400       0.86539300       0.94214600
    71  C          0.37290900       0.88386900       0.56108600
    72  C          0.62709100       0.11613100       0.43891400
    73  C          0.51225900       0.86484900       0.58916600
    74  C          0.48774100       0.13515100       0.41083400
    75  C          0.52659800       0.93624900       0.66441600
    76  C          0.47340200       0.06375100       0.33558400
    77  H          0.62188200       0.92084500       0.67989200
    78  H          0.37811800       0.07915500       0.32010800
    79  C          0.39681800       0.03318900       0.71846600
    80  C          0.60318200       0.96681100       0.28153400
    81  C          0.25433800       0.05258900       0.69204600
    82  C          0.74566200       0.94741100       0.30795400
    83  H          0.16678000       0.11417200       0.72691600
    84  H          0.83322000       0.88582800       0.27308400
    85  C          0.24538900       0.98077900       0.61525600
    86  C          0.75461100       0.01922100       0.38474400
    87  C          0.55767900       0.06456900       0.83121600
    88  C          0.44232100       0.93543100       0.16878400
    89  H          0.63096800       0.04842900       0.77294900
    90  H          0.36903200       0.95157100       0.22705100
    91  H          0.58904400       0.97064100       0.87888500
    92  H          0.41095600       0.02935900       0.12111500
    93  C          0.55352100       0.18574100       0.88705700
    94  C          0.44647900       0.81425900       0.11294300
    95  H          0.65117700       0.15124600       0.91627400
    96  H          0.34882300       0.84875400       0.08372600
    97  H          0.53476000       0.27565900       0.83699000
    98  H          0.46524000       0.72434100       0.16301000
    99  C          0.29558100       0.27989100       0.92459700
   100  C          0.70441900       0.72010900       0.07540300
   101  H          0.27925700       0.36874600       0.87399900
   102  H          0.72074300       0.63125400       0.12600100
   103  H          0.21706900       0.30970300       0.97931700
   104  H          0.78293100       0.69029700       0.02068300
   105  C          0.28423900       0.16371110       0.87143700
   106  C          0.71576100       0.83628890       0.12856300
   107  H          0.28854400       0.07979700       0.92332100
   108  H          0.71145600       0.92020300       0.07667900
   109  H          0.18803500       0.20852000       0.83803700
   110  H          0.81196500       0.79148000       0.16196300
   111  N          0.36057800       0.80918800       0.48083600
   112  N          0.63942200       0.19081200       0.51916400
   113  N          0.40828700       0.10836800       0.79260500
   114  N          0.59171300       0.89163200       0.20739500
   115  O          0.25059800       0.87708800       0.42438600
   116  O          0.74940200       0.12291200       0.57561400
   117  O          0.46139800       0.68156800       0.47182600
   118  O          0.53860200       0.31843200       0.52817400
   119  O          0.43938700       0.22243800       0.96873500
   120  O          0.56061300       0.77756200       0.03126500
   121  F          0.63926600       0.77777600       0.53803400
   122  F          0.36073400       0.22222400       0.46196600
   123  F          0.10833600      -0.00023400       0.59446400
   124  F          0.89166400       0.00023400       0.40553600
