data_VOCTEO
_symmetry_space_group_name_H-M    'P1'
_symmetry_Int_Tables_number       1
loop_
_symmetry_equiv_pos_site_id
_symmetry_equiv_pos_as_xyz
1 x,y,z
_cell_length_a                   7.86226
_cell_length_b                   12.22329
_cell_length_c                   17.582013
_cell_angle_alpha                90.0
_cell_angle_beta                 97.50389
_cell_angle_gamma                90.0
loop_
_atom_site_label
_atom_site_type_symbol
_atom_site_fract_x
_atom_site_fract_y
_atom_site_fract_z
     1  O          0.19271120       0.77547700       0.06508500
     2  O          0.30728880       0.27547700       0.43491500
     3  O          0.80728880       0.22452300       0.93491500
     4  O          0.69271120       0.72452300       0.56508500
     5  N          0.22738130       0.96573800      -0.00354600
     6  N          0.27261870       0.46573800       0.50354600
     7  N          0.77261870       0.03426200       0.00354600
     8  N          0.72738130       0.53426200       0.49645400
     9  N          0.60691140       0.45332900       0.09017700
    10  N          0.89308860       0.95332900       0.40982300
    11  N          0.39308860       0.54667100       0.90982300
    12  N          0.10691140       0.04667100       0.59017700
    13  C          0.07592000       0.98717120       0.86369200
    14  C          0.42408000       0.48717120       0.63630800
    15  C          0.92408000       0.01282880       0.13630800
    16  C          0.57592000       0.51282880       0.36369200
    17  C          0.12667150       0.92269100       0.93507300
    18  C          0.37332850       0.42269100       0.56492700
    19  C          0.87332850       0.07730900       0.06492700
    20  C          0.62667150       0.57730900       0.43507300
    21  C          0.06935150       0.81709100       0.93913300
    22  C          0.43064850       0.31709100       0.56086700
    23  C          0.93064850       0.18290900       0.06086700
    24  C          0.56935150       0.68290900       0.43913300
    25  C          0.10545150       0.74654100       0.00368700
    26  C          0.39454850       0.24654100       0.49631300
    27  C          0.89454850       0.25345900      -0.00368700
    28  C          0.60545150       0.75345900       0.50368700
    29  C          0.03472000       0.63216110      -0.00344900
    30  C          0.46528000       0.13216110       0.50344900
    31  C          0.96528000       0.36783890       0.00344900
    32  C          0.53472000       0.86783890       0.49655100
    33  C          0.30524140       0.06791900       0.01046700
    34  C          0.19475860       0.56791900       0.48953300
    35  C          0.69475860       0.93208100       0.98953300
    36  C          0.80524140       0.43208100       0.51046700
    37  C          0.30704170       0.15207100       0.95721300
    38  C          0.19295830       0.65207100       0.54278700
    39  C          0.69295830       0.84792900       0.04278700
    40  C          0.80704170       0.34792900       0.45721300
    41  C          0.38730170       0.25000100       0.97826300
    42  C          0.11269830       0.75000100       0.52173700
    43  C          0.61269830       0.74999900       0.02173700
    44  C          0.88730170       0.24999900       0.47826300
    45  C          0.46779150       0.26586900       0.05260700
    46  C          0.03220850       0.76586900       0.44739300
    47  C          0.53220850       0.73413100       0.94739300
    48  C          0.96779150       0.23413100       0.55260700
    49  C          0.46834160       0.18160100       0.10611700
    50  C          0.03165840       0.68160100       0.39388300
    51  C          0.53165840       0.81839900       0.89388300
    52  C          0.96834160       0.31839900       0.60611700
    53  C          0.38792150       0.08413100       0.08507700
    54  C          0.11207850       0.58413100       0.41492300
    55  C          0.61207850       0.91586900       0.91492300
    56  C          0.88792150       0.41586900       0.58507700
    57  C          0.54703160       0.36939100       0.07365700
    58  C          0.95296840       0.86939100       0.42634300
    59  C          0.45296840       0.63060900       0.92634300
    60  C          0.04703160       0.13060900       0.57365700
    61  H          0.24321800       0.91581200       0.03689000
    62  H          0.25678200       0.41581200       0.46311000
    63  H          0.75678200       0.08418800       0.96311000
    64  H          0.74321800       0.58418800       0.53689000
    65  H          0.02020000       0.05751500       0.87529000
    66  H          0.47980000       0.55751500       0.62471000
    67  H          0.97980000       0.94248500       0.12471000
    68  H          0.52020000       0.44248500       0.37529000
    69  H         -0.00120000       0.94281600       0.82868900
    70  H          0.50120000       0.44281600       0.67131100
    71  H          0.00120000       0.05718400       0.17131100
    72  H          0.49880000       0.55718400       0.32868900
    73  H          0.18120000       0.00671400       0.83841000
    74  H          0.31880000       0.50671400       0.66159000
    75  H          0.81880000      -0.00671400       0.16159000
    76  H          0.68120000       0.49328600       0.33841000
    77  H         -0.00311800       0.78801100       0.89442000
    78  H          0.50311800       0.28801100       0.60558000
    79  H          0.00311800       0.21198900       0.10558000
    80  H          0.49688200       0.71198900       0.39442000
    81  H          0.12730000       0.58021700       0.01491200
    82  H          0.37270000       0.08021700       0.48508800
    83  H          0.87270000       0.41978300       0.98508800
    84  H          0.62730000       0.91978300       0.51491200
    85  H          0.97780000       0.61591600       0.94578800
    86  H          0.52220000       0.11591600       0.55421200
    87  H          0.02220000       0.38408400       0.05421200
    88  H          0.47780000       0.88408400       0.44578800
    89  H          0.95370000       0.62051600       0.03331200
    90  H          0.54630000       0.12051600       0.46668800
    91  H          0.04630000       0.37948400       0.96668800
    92  H          0.45370000       0.87948400       0.53331200
    93  H          0.25211900       0.14581200       0.90601000
    94  H          0.24788100       0.64581200       0.59399000
    95  H          0.74788100       0.85418800       0.09399000
    96  H          0.75211900       0.35418800       0.40601000
    97  H          0.38491700       0.30841200       0.94292000
    98  H          0.11508300       0.80841200       0.55708000
    99  H          0.61508300       0.69158800       0.05708000
   100  H          0.88491700       0.19158800       0.44292000
   101  H          0.52591800       0.19211200       0.15739000
   102  H          0.97408200       0.69211200       0.34261000
   103  H          0.47408200       0.80788800       0.84261000
   104  H          0.02591800       0.30788800       0.65739000
   105  H          0.38691700       0.02531200       0.12158000
   106  H          0.11308300       0.52531200       0.37842000
   107  H          0.61308300       0.97468800       0.87842000
   108  H          0.88691700       0.47468800       0.62158000
   109  N          0.35473150       0.60224900       0.17013600
   110  N          0.14526850       0.10224900       0.32986400
   111  N          0.64526850       0.39775100       0.82986400
   112  N          0.85473150       0.89775100       0.67013600
   113  N          0.74121840       0.26343100       0.26893600
   114  N          0.75878160       0.76343100       0.23106400
   115  N          0.25878160       0.73656900       0.73106400
   116  N          0.24121840       0.23656900       0.76893600
   117  C          0.23191150       0.53276900       0.19155600
   118  C          0.26808850       0.03276900       0.30844400
   119  C          0.76808850       0.46723100       0.80844400
   120  C          0.73191150       0.96723100       0.69155600
   121  C          0.27120160       0.42371100       0.21205700
   122  C          0.22879840       0.92371100       0.28794300
   123  C          0.72879840       0.57628900       0.78794300
   124  C          0.77120160       0.07628900       0.71205700
   125  C          0.14643160       0.35489100       0.23299700
   126  C          0.35356840       0.85489100       0.26700300
   127  C          0.85356840       0.64510900       0.76700300
   128  C          0.64643160       0.14510900       0.73299700
   129  C          0.97951840       0.39303100       0.23466600
   130  C          0.52048160       0.89303100       0.26533400
   131  C          0.02048160       0.60696900       0.76533400
   132  C          0.47951840       0.10696900       0.73466600
   133  C          0.94066840       0.50243100       0.21659700
   134  C          0.55933160       0.00243100       0.28340300
   135  C          0.05933160       0.49756900       0.78340300
   136  C          0.44066840      -0.00243100       0.71659700
   137  C          0.06518160       0.57115100       0.19590700
   138  C          0.43481840       0.07115100       0.30409300
   139  C          0.93481840       0.42884900       0.80409300
   140  C          0.56518160       0.92884900       0.69590700
   141  C          0.84777830       0.32039100       0.25363700
   142  C          0.65222170       0.82039100       0.24636300
   143  C          0.15222170       0.67960900       0.74636300
   144  C          0.34777830       0.17960900       0.75363700
   145  H          0.44720000       0.56971300       0.15529000
   146  H          0.05280000       0.06971300       0.34471000
   147  H          0.55280000       0.43028700       0.84471000
   148  H          0.94720000       0.93028700       0.65529000
   149  H          0.31301900       0.65901400       0.14029000
   150  H          0.18698100       0.15901400       0.35971000
   151  H          0.68698100       0.34098600       0.85971000
   152  H          0.81301900       0.84098600       0.64029000
   153  H          0.38601800       0.39621100       0.21068000
   154  H          0.11398200       0.89621100       0.28932000
   155  H          0.61398200       0.60378900       0.78932000
   156  H          0.88601800       0.10378900       0.71068000
   157  H          0.17701700       0.27861200       0.24658000
   158  H          0.32298300       0.77861200       0.25342000
   159  H          0.82298300       0.72138800       0.75342000
   160  H          0.67701700       0.22138800       0.74658000
   161  H          0.82528200       0.53001100       0.21788000
   162  H          0.67471800       0.03001100       0.28212000
   163  H          0.17471800       0.46998900       0.78212000
   164  H          0.32528200       0.96998900       0.71788000
   165  H          0.03821700       0.64671200       0.18308000
   166  H          0.46178300       0.14671200       0.31692000
   167  H          0.96178300       0.35328800       0.81692000
   168  H          0.53821700       0.85328800       0.68308000
