data_VOGWOH
_symmetry_space_group_name_H-M    'P1'
_symmetry_Int_Tables_number       1
loop_
_symmetry_equiv_pos_site_id
_symmetry_equiv_pos_as_xyz
1 x,y,z
_cell_length_a                   7.59964
_cell_length_b                   8.02034
_cell_length_c                   8.07814
_cell_angle_alpha                91.7823
_cell_angle_beta                 117.5403
_cell_angle_gamma                111.7653
loop_
_atom_site_label
_atom_site_type_symbol
_atom_site_fract_x
_atom_site_fract_y
_atom_site_fract_z
     1  N          0.29234150       0.94519130       0.06134130
     2  N          0.70765850       0.05480870       0.93865870
     3  H          0.21230000       0.89920000       0.10920000
     4  H          0.78770000       0.10080000       0.89080000
     5  H          0.42630000       0.02720000       0.15020000
     6  H          0.57370000       0.97280000       0.84980000
     7  H          0.22820000       0.00420000       0.96880000
     8  H          0.77180000      -0.00420000       0.03120000
     9  N          0.31304150       0.80492120       0.96296860
    10  N          0.68695850       0.19507880       0.03703140
    11  H          0.18030000       0.73520000       0.87180000
    12  H          0.81970000       0.26480000       0.12820000
    13  H          0.35320000       0.73820000       0.04720000
    14  H          0.64680000       0.26180000       0.95280000
    15  N          0.09835150       0.10627130       0.76307140
    16  N          0.90164850       0.89372870       0.23692860
    17  H          0.17630000       0.16220000       0.71420000
    18  H          0.82370000       0.83780000       0.28580000
    19  H         -0.01020000       0.00820000       0.67520000
    20  H          0.01020000      -0.00820000       0.32480000
    21  N          0.00793160       0.22240130       0.80292140
    22  N         -0.00793160       0.77759870       0.19707860
    23  H         -0.03530000       0.27520000       0.71320000
    24  H          0.03530000       0.72480000       0.28680000
    25  H          0.12030000       0.31420000       0.90230000
    26  H          0.87970000       0.68580000       0.09770000
    27  B          0.29114180       0.52049150       0.30935160
    28  B          0.70885820       0.47950850       0.69064840
    29  H          0.15420000       0.52720000       0.18320000
    30  H          0.84580000       0.47280000       0.81680000
    31  B          0.24542170       0.38636150       0.46971160
    32  B          0.75457830       0.61363850       0.53028840
    33  H          0.07920000       0.31211900       0.45120000
    34  H          0.92080000       0.68788100       0.54880000
    35  B          0.32150180       0.31077150       0.31363160
    36  B          0.67849820       0.68922850       0.68636840
    37  H          0.19920000       0.18051900       0.18920000
    38  H          0.80080000       0.81948100       0.81080000
    39  B          0.48508180       0.49098150       0.70321160
    40  B          0.51491820       0.50901850       0.29678840
    41  H          0.47720000       0.48420000       0.83620000
    42  H          0.52280000       0.51580000       0.16380000
    43  B          0.44168170       0.29130150       0.55636160
    44  B          0.55831830       0.70869850       0.44363840
    45  H          0.39620000       0.15320000       0.59220000
    46  H          0.60380000       0.84680000       0.40780000
    47  B          0.60797180       0.36736150       0.44956160
    48  B          0.39202820       0.63263850       0.55043840
    49  H          0.67530000       0.27620000       0.41620000
    50  H          0.32470000       0.72380000       0.58380000
