data_VOHKUA
_symmetry_space_group_name_H-M    'P1'
_symmetry_Int_Tables_number       1
loop_
_symmetry_equiv_pos_site_id
_symmetry_equiv_pos_as_xyz
1 x,y,z
_cell_length_a                   5.84524
_cell_length_b                   14.38359
_cell_length_c                   21.771213
_cell_angle_alpha                90.0
_cell_angle_beta                 92.2053
_cell_angle_gamma                90.0
loop_
_atom_site_label
_atom_site_type_symbol
_atom_site_fract_x
_atom_site_fract_y
_atom_site_fract_z
     1  S          0.86263000       0.55792000       0.15296170
     2  S          0.63737000       0.05792000       0.34703830
     3  S          0.13737000       0.44208000       0.84703830
     4  S          0.36263000       0.94208000       0.65296170
     5  O          0.61680000       0.54648000       0.15166000
     6  O          0.88320000       0.04648000       0.34834000
     7  O          0.38320000       0.45352000       0.84834000
     8  O          0.11680000       0.95352000       0.65166000
     9  O          0.00420000       0.47858000       0.16815000
    10  O          0.49580000       0.97858000       0.33185000
    11  O         -0.00420000       0.52142000       0.83185000
    12  O          0.50420000       0.02142000       0.66815000
    13  N          0.12840000       0.71451200       0.91532000
    14  N          0.37160000       0.21451200       0.58468000
    15  N          0.87160000       0.28548800       0.08468000
    16  N          0.62840000       0.78548800       0.41532000
    17  H          0.28500000       0.70217000       0.89687000
    18  H          0.21500000       0.20217000       0.60313000
    19  H          0.71500000       0.29783000       0.10313000
    20  H          0.78500000       0.79783000       0.39687000
    21  H          0.08600000       0.76200000       0.90686000
    22  H          0.41400000       0.26200000       0.59314000
    23  H          0.91400000       0.23800000       0.09314000
    24  H          0.58600000       0.73800000       0.40686000
    25  N          0.08230000       0.84711100       0.34007000
    26  N          0.41770000       0.34711100       0.15993000
    27  N          0.91770000       0.15288900       0.65993000
    28  N          0.58230000       0.65288900       0.84007000
    29  H          0.24400000       0.85215000       0.35111000
    30  H          0.25600000       0.35215000       0.14889000
    31  H          0.75600000       0.14785000       0.64889000
    32  H          0.74400000       0.64785000       0.85111000
    33  H          0.01400000       0.89618000       0.33610000
    34  H          0.48600000       0.39618000       0.16390000
    35  H         -0.01400000       0.10382000       0.66390000
    36  H          0.51400000       0.60382000       0.83610000
    37  C          0.06430000       0.67501100       0.96923000
    38  C          0.43570000       0.17501100       0.53077000
    39  C          0.93570000       0.32498900       0.03077000
    40  C          0.56430000       0.82498900       0.46923000
    41  C          0.20430000       0.61171200      -0.00027000
    42  C          0.29570000       0.11171200       0.50027000
    43  C          0.79570000       0.38828800       0.00027000
    44  C          0.70430000       0.88828800       0.49973000
    45  H          0.34020000       0.59340000       0.98240000
    46  H          0.15980000       0.09340000       0.51760000
    47  H          0.65980000       0.40660000       0.01760000
    48  H          0.84020000       0.90660000       0.48240000
    49  C          0.14630000       0.57471100       0.05637000
    50  C          0.35370000       0.07471100       0.44363000
    51  C          0.85370000       0.42528900       0.94363000
    52  C          0.64630000       0.92528900       0.55637000
    53  H          0.24360000       0.53350000       0.07720000
    54  H          0.25640000       0.03350000       0.42280000
    55  H          0.75640000       0.46650000       0.92280000
    56  H          0.74360000       0.96650000       0.57720000
    57  C          0.93870000       0.60011000       0.08096000
    58  C          0.56130000       0.10011000       0.41904000
    59  C          0.06130000       0.39989000       0.91904000
    60  C          0.43870000       0.89989000       0.58096000
    61  C          0.92980000       0.64569000       0.20666000
    62  C          0.57020000       0.14569000       0.29334000
    63  C          0.07020000       0.35431000       0.79334000
    64  C          0.42980000       0.85431000       0.70666000
    65  C          0.77070000       0.71481000       0.21867000
    66  C          0.72930000       0.21481000       0.28133000
    67  C          0.22930000       0.28519000       0.78133000
    68  C          0.27070000       0.78519000       0.71867000
    69  H          0.62980000       0.71560000       0.19720000
    70  H          0.87020000       0.21560000       0.30280000
    71  H          0.37020000       0.28440000       0.80280000
    72  H          0.12980000       0.78440000       0.69720000
    73  C          0.82070000       0.78231000       0.26217000
    74  C          0.67930000       0.28231000       0.23783000
    75  C          0.17930000       0.21769000       0.73783000
    76  C          0.32070000       0.71769000       0.76217000
    77  H          0.71460000       0.82840000       0.26980000
    78  H          0.78540000       0.32840000       0.23020000
    79  H          0.28540000       0.17160000       0.73020000
    80  H          0.21460000       0.67160000       0.76980000
    81  C          0.03330000       0.78171000       0.29507000
    82  C          0.46670000       0.28171000       0.20493000
    83  C          0.96670000       0.21829000       0.70493000
    84  C          0.53330000       0.71829000       0.79507000
    85  C          0.85570000       0.69811100      -0.00588000
    86  C          0.64430000       0.19811100       0.50588000
    87  C          0.14430000       0.30188900       0.00588000
    88  C          0.35570000       0.80188900       0.49412000
    89  H          0.75710000       0.73890000       0.97310000
    90  H          0.74290000       0.23890000       0.52690000
    91  H          0.24290000       0.26110000       0.02690000
    92  H          0.25710000       0.76110000       0.47310000
    93  C          0.79270000       0.66131100       0.04987000
    94  C          0.70730000       0.16131100       0.45013000
    95  C          0.20730000       0.33868900       0.95013000
    96  C          0.29270000       0.83868900       0.54987000
    97  H          0.65380000       0.67750000       0.06610000
    98  H          0.84620000       0.17750000       0.43390000
    99  H          0.34620000       0.32250000       0.93390000
   100  H          0.15380000       0.82250000       0.56610000
   101  C          0.14220000       0.64531100       0.23827000
   102  C          0.35780000       0.14531100       0.26173000
   103  C          0.85780000       0.35468900       0.76173000
   104  C          0.64220000       0.85468900       0.73827000
   105  H          0.25010000       0.60010000       0.22960000
   106  H          0.24990000       0.10010000       0.27040000
   107  H          0.74990000       0.39990000       0.77040000
   108  H          0.75010000       0.89990000       0.72960000
   109  C          0.19230000       0.71171000       0.28197000
   110  C          0.30770000       0.21171000       0.21803000
   111  C          0.80770000       0.28829000       0.71803000
   112  C          0.69230000       0.78829000       0.78197000
   113  H          0.33330000       0.71050000       0.30320000
   114  H          0.16670000       0.21050000       0.19680000
   115  H          0.66670000       0.28950000       0.69680000
   116  H          0.83330000       0.78950000       0.80320000
   117  S          0.78389000       0.04333000       0.15792000
   118  S          0.71611000       0.54333000       0.34208000
   119  S          0.21611000       0.95667000       0.84208000
   120  S          0.28389000       0.45667000       0.65792000
   121  O          0.06420000       0.07819000       0.06756000
   122  O          0.43580000       0.57819000       0.43244000
   123  O          0.93580000       0.92181000       0.93244000
   124  O          0.56420000       0.42181000       0.56756000
   125  N          0.77620000       0.97109000       0.05016000
   126  N          0.72380000       0.47109000       0.44984000
   127  N          0.22380000       0.02891000       0.94984000
   128  N          0.27620000       0.52891000       0.55016000
   129  H          0.80870000       0.95730000       0.01300000
   130  H          0.69130000       0.45730000       0.48700000
   131  H          0.19130000       0.04270000       0.98700000
   132  H          0.30870000       0.54270000       0.51300000
   133  C          0.26730000       0.83351200       0.08969000
   134  C          0.23270000       0.33351200       0.41031000
   135  C          0.73270000       0.16648800       0.91031000
   136  C          0.76730000       0.66648800       0.58969000
   137  H          0.16340000       0.79020000       0.07330000
   138  H          0.33660000       0.29020000       0.42670000
   139  H          0.83660000       0.20980000       0.92670000
   140  H          0.66340000       0.70980000       0.57330000
   141  C          0.43930000       0.86631100       0.05348000
   142  C          0.06070000       0.36631100       0.44652000
   143  C          0.56070000       0.13368900       0.94652000
   144  C          0.93930000       0.63368900       0.55348000
   145  H          0.45150000       0.84600000       0.01310000
   146  H          0.04850000       0.34600000       0.48690000
   147  H          0.54850000       0.15400000       0.98690000
   148  H          0.95150000       0.65400000       0.51310000
   149  C          0.59330000       0.93011000       0.07887000
   150  C          0.90670000       0.43011000       0.42113000
   151  C          0.40670000       0.06989000       0.92113000
   152  C          0.09330000       0.56989000       0.57887000
   153  C          0.90030000       0.03351100       0.08418000
   154  C          0.59970000       0.53351100       0.41582000
   155  C          0.09970000       0.96648900       0.91582000
   156  C          0.40030000       0.46648900       0.58418000
   157  C          0.57230000       0.96131100       0.13907000
   158  C          0.92770000       0.46131100       0.36093000
   159  C          0.42770000       0.03868900       0.86093000
   160  C          0.07230000       0.53868900       0.63907000
   161  C          0.24730000       0.86361200       0.14938000
   162  C          0.25270000       0.36361200       0.35062000
   163  C          0.75270000       0.13638800       0.85062000
   164  C          0.74730000       0.63638800       0.64938000
   165  H          0.13000000       0.84050000       0.17260000
   166  H          0.37000000       0.34050000       0.32740000
   167  H          0.87000000       0.15950000       0.82740000
   168  H          0.63000000       0.65950000       0.67260000
   169  C          0.39830000       0.92751200       0.17488000
   170  C          0.10170000       0.42751200       0.32512000
   171  C          0.60170000       0.07248800       0.82512000
   172  C          0.89830000       0.57248800       0.67488000
   173  H          0.38450000       0.94770000       0.21510000
   174  H          0.11550000       0.44770000       0.28490000
   175  H          0.61550000       0.05230000       0.78490000
   176  H          0.88450000       0.55230000       0.71510000
