data_VOJCAC
_symmetry_space_group_name_H-M    'P1'
_symmetry_Int_Tables_number       1
loop_
_symmetry_equiv_pos_site_id
_symmetry_equiv_pos_as_xyz
1 x,y,z
_cell_length_a                   17.9969
_cell_length_b                   9.7125
_cell_length_c                   15.2958
_cell_angle_alpha                90.0
_cell_angle_beta                 114.0785
_cell_angle_gamma                90.0
loop_
_atom_site_label
_atom_site_type_symbol
_atom_site_fract_x
_atom_site_fract_y
_atom_site_fract_z
     1  Cl         0.82291100       0.40313000       0.80885120
     2  Cl         0.17708900       0.40313000       0.19114880
     3  Cl         0.32291100       0.90313000       0.80885120
     4  Cl         0.67708900       0.90313000       0.19114880
     5  O          0.69143000       0.35024000       0.49723000
     6  O          0.30857000       0.35024000       0.50277000
     7  O          0.19143000       0.85024000       0.49723000
     8  O          0.80857000       0.85024000       0.50277000
     9  H          0.70797900       0.26838700       0.50309900
    10  H          0.29202100       0.26838700       0.49690100
    11  H          0.20797900       0.76838700       0.50309900
    12  H          0.79202100       0.76838700       0.49690100
    13  O          0.74293000       0.60414000       0.48943000
    14  O          0.25707000       0.60414000       0.51057000
    15  O          0.24293000       0.10414000       0.48943000
    16  O          0.75707000       0.10414000       0.51057000
    17  O          0.74193000       0.65714000       0.63023000
    18  O          0.25807000       0.65714000       0.36977000
    19  O          0.24193000       0.15714000       0.63023000
    20  O          0.75807000       0.15714000       0.36977000
    21  C          0.68283000       0.40536000       0.64854000
    22  C          0.31717000       0.40536000       0.35146000
    23  C          0.18283000       0.90536000       0.64854000
    24  C          0.81717000       0.90536000       0.35146000
    25  C          0.73774000       0.57216000       0.56654000
    26  C          0.26226000       0.57216000       0.43346000
    27  C          0.23774000       0.07216000       0.56654000
    28  C          0.76226000       0.07216000       0.43346000
    29  C          0.73043000       0.42037000       0.58684000
    30  C          0.26957000       0.42037000       0.41316000
    31  C          0.23043000       0.92037000       0.58684000
    32  C          0.76957000       0.92037000       0.41316000
    33  H          0.78619700       0.38120200       0.62196400
    34  H          0.21380300       0.38120200       0.37803600
    35  H          0.28619700       0.88120200       0.62196400
    36  H          0.71380300       0.88120200       0.37803600
    37  C          0.71743000       0.40117000       0.74624000
    38  C          0.28257000       0.40117000       0.25376000
    39  C          0.21743000       0.90117000       0.74624000
    40  C          0.78257000       0.90117000       0.25376000
    41  C          0.58904000       0.39508000       0.75565000
    42  C          0.41096000       0.39508000       0.24435000
    43  C          0.08904000       0.89508000       0.75565000
    44  C          0.91096000       0.89508000       0.24435000
    45  H          0.55647000       0.39162300       0.79130000
    46  H          0.44353000       0.39162300       0.20870000
    47  H          0.05647000       0.89162300       0.79130000
    48  H          0.94353000       0.89162300       0.20870000
    49  C          0.67124000       0.39488000       0.80094000
    50  C          0.32876000       0.39488000       0.19906000
    51  C          0.17124000       0.89488000       0.80094000
    52  C          0.82876000       0.89488000       0.19906000
    53  H          0.69712700       0.39049700       0.86883700
    54  H          0.30287300       0.39049700       0.13116300
    55  H          0.19712700       0.89049700       0.86883700
    56  H          0.80287300       0.89049700       0.13116300
    57  C          0.59904000       0.40079000       0.60445000
    58  C          0.40096000       0.40079000       0.39555000
    59  C          0.09904000       0.90079000       0.60445000
    60  C          0.90096000       0.90079000       0.39555000
    61  H          0.57261900       0.39784600       0.53647600
    62  H          0.42738100       0.39784600       0.46352400
    63  H          0.07261900       0.89784600       0.53647600
    64  H          0.92738100       0.89784600       0.46352400
    65  C          0.55315000       0.40021000       0.65765000
    66  C          0.44685000       0.40021000       0.34235000
    67  C          0.05315000       0.90021000       0.65765000
    68  C          0.94685000       0.90021000       0.34235000
    69  H          0.49548500       0.40351600       0.62580000
    70  H          0.50451500       0.40351600       0.37420000
    71  H         -0.00451500       0.90351600       0.62580000
    72  H          0.00451500       0.90351600       0.37420000
    73  N          0.71643000       0.93295000       0.62423000
    74  N          0.28357000       0.93295000       0.37577000
    75  N          0.21643000       0.43295000       0.62423000
    76  N          0.78357000       0.43295000       0.37577000
    77  H          0.71940700       0.83967900       0.62042300
    78  H          0.28059300       0.83967900       0.37957700
    79  H          0.21940700       0.33967900       0.62042300
    80  H          0.78059300       0.33967900       0.37957700
    81  H          0.73767100       0.96988500       0.58474600
    82  H          0.26232900       0.96988500       0.41525400
    83  H          0.23767100       0.46988500       0.58474600
    84  H          0.76232900       0.46988500       0.41525400
    85  C          0.73383000       0.93276000       0.79544000
    86  C          0.26617000       0.93276000       0.20456000
    87  C          0.23383000       0.43276000       0.79544000
    88  C          0.76617000       0.43276000       0.20456000
    89  O          0.89003000       0.96037000       0.69193000
    90  O          0.10997000       0.96037000       0.30807000
    91  O          0.39003000       0.46037000       0.69193000
    92  O          0.60997000       0.46037000       0.30807000
    93  H          0.86147700       0.93481300       0.63555000
    94  H          0.13852300       0.93481300       0.36445000
    95  H          0.36147700       0.43481300       0.63555000
    96  H          0.63852300       0.43481300       0.36445000
    97  C          0.76883000       0.97576000       0.72484000
    98  C          0.23117000       0.97576000       0.27516000
    99  C          0.26883000       0.47576000       0.72484000
   100  C          0.73117000       0.47576000       0.27516000
   101  H          0.77252700       0.07852000       0.72606400
   102  H          0.22747300       0.07852000       0.27393600
   103  H          0.27252700       0.57852000       0.72606400
   104  H          0.72747300       0.57852000       0.27393600
   105  C          0.58633000       0.94427000       0.48074000
   106  C          0.41367000       0.94427000       0.51926000
   107  C          0.08633000       0.44427000       0.48074000
   108  C          0.91367000       0.44427000       0.51926000
   109  C          0.71714000       0.79767000       0.80614000
   110  C          0.28286000       0.79767000       0.19386000
   111  C          0.21714000       0.29767000       0.80614000
   112  C          0.78286000       0.29767000       0.19386000
   113  H          0.72502800       0.72855000       0.76672600
   114  H          0.27497200       0.72855000       0.23327400
   115  H          0.22502800       0.22855000       0.76672600
   116  H          0.77497200       0.22855000       0.23327400
   117  C          0.62834000       0.97297000       0.58734000
   118  C          0.37166000       0.97297000       0.41266000
   119  C          0.12834000       0.47297000       0.58734000
   120  C          0.87166000       0.47297000       0.41266000
   121  H          0.62373900       0.07198800       0.59940600
   122  H          0.37626100       0.07198800       0.40059400
   123  H          0.12373900       0.57198800       0.59940600
   124  H          0.87626100       0.57198800       0.40059400
   125  H          0.60138000       0.91982500       0.62152700
   126  H          0.39862000       0.91982500       0.37847300
   127  H          0.10138000       0.41982500       0.62152700
   128  H          0.89862000       0.41982500       0.37847300
   129  C          0.85383000       0.91878000       0.75114000
   130  C          0.14617000       0.91878000       0.24886000
   131  C          0.35383000       0.41878000       0.75114000
   132  C          0.64617000       0.41878000       0.24886000
   133  H          0.88873900       0.94719000       0.81741500
   134  H          0.11126100       0.94719000       0.18258500
   135  H          0.38873900       0.44719000       0.81741500
   136  H          0.61126100       0.44719000       0.18258500
   137  H          0.85092100       0.81687300       0.75014100
   138  H          0.14907900       0.81687300       0.24985900
   139  H          0.35092100       0.31687300       0.75014100
   140  H          0.64907900       0.31687300       0.24985900
   141  C          0.56364000       0.05477000       0.41655000
   142  C          0.43636000       0.05477000       0.58345000
   143  C          0.06364000       0.55477000       0.41655000
   144  C          0.93636000       0.55477000       0.58345000
   145  H          0.57221400       0.14685400       0.43925100
   146  H          0.42778600       0.14685400       0.56074900
   147  H          0.07221400       0.64685400       0.43925100
   148  H          0.92778600       0.64685400       0.56074900
   149  C          0.67824000       0.86129000       0.93365000
   150  C          0.32176000       0.86129000       0.06635000
   151  C          0.17824000       0.36129000       0.93365000
   152  C          0.82176000       0.36129000       0.06635000
   153  H          0.65950000       0.83632000       0.98125200
   154  H          0.34050000       0.83632000       0.01874800
   155  H          0.15950000       0.33632000       0.98125200
   156  H          0.84050000       0.33632000       0.01874800
   157  C          0.51534000       0.89761000       0.28605000
   158  C          0.48466000       0.89761000       0.71395000
   159  C          0.01534000       0.39761000       0.28605000
   160  C          0.98466000       0.39761000       0.71395000
   161  H          0.49115700       0.88151800       0.21888800
   162  H          0.50884300       0.88151800       0.78111200
   163  H         -0.00884300       0.38151800       0.21888800
   164  H          0.00884300       0.38151800       0.78111200
   165  C          0.52844000       0.02741000       0.31965000
   166  C          0.47156000       0.02741000       0.68035000
   167  C          0.02844000       0.52741000       0.31965000
   168  C          0.97156000       0.52741000       0.68035000
   169  H          0.51300900       0.10199400       0.27555000
   170  H          0.48699100       0.10199400       0.72445000
   171  H          0.01300900       0.60199400       0.27555000
   172  H          0.98699100       0.60199400       0.72445000
   173  C          0.68834000       0.76178000       0.87545000
   174  C          0.31166000       0.76178000       0.12455000
   175  C          0.18834000       0.26178000       0.87545000
   176  C          0.81166000       0.26178000       0.12455000
   177  H          0.67575400       0.66842300       0.88216300
   178  H          0.32424600       0.66842300       0.11783700
   179  H          0.17575400       0.16842300       0.88216300
   180  H          0.82424600       0.16842300       0.11783700
   181  C          0.72324000       0.03117000       0.85494000
   182  C          0.27676000       0.03117000       0.14506000
   183  C          0.22324000       0.53117000       0.85494000
   184  C          0.77676000       0.53117000       0.14506000
   185  H          0.73558600       0.12485700       0.84900200
   186  H          0.26441400       0.12485700       0.15099800
   187  H          0.23558600       0.62485700       0.84900200
   188  H          0.76441400       0.62485700       0.15099800
   189  C          0.69465000      -0.00681000       0.92325000
   190  C          0.30535000      -0.00681000       0.07675000
   191  C          0.19465000       0.49319000       0.92325000
   192  C          0.80535000       0.49319000       0.07675000
   193  H          0.68666000       0.06146300       0.96293000
   194  H          0.31334000       0.06146300       0.03707000
   195  H          0.18666000       0.56146300       0.96293000
   196  H          0.81334000       0.56146300       0.03707000
   197  C          0.57254000       0.81368000       0.44645000
   198  C          0.42746000       0.81368000       0.55355000
   199  C          0.07254000       0.31368000       0.44645000
   200  C          0.92746000       0.31368000       0.55355000
   201  H          0.58743100       0.73838600       0.48994200
   202  H          0.41256900       0.73838600       0.51005800
   203  H          0.08743100       0.23838600       0.48994200
   204  H          0.91256900       0.23838600       0.51005800
   205  C          0.53685000       0.78829000       0.34846000
   206  C          0.46315000       0.78829000       0.65154000
   207  C          0.03685000       0.28829000       0.34846000
   208  C          0.96315000       0.28829000       0.65154000
   209  H          0.52735300       0.69646600       0.32491000
   210  H          0.47264700       0.69646600       0.67509000
   211  H          0.02735300       0.19646600       0.32491000
   212  H          0.97264700       0.19646600       0.67509000
   213  C          0.94085000       0.87151700       0.01496000
   214  C          0.05915000       0.87151700       0.98504000
   215  C          0.44085000       0.37151700       0.01496000
   216  C          0.55915000       0.37151700       0.98504000
   217  H          0.89921700       0.82304500       0.02514400
   218  H          0.10078300       0.82304500       0.97485600
   219  H          0.39921700       0.32304500       0.02514400
   220  H          0.60078300       0.32304500       0.97485600
   221  C          0.94007000       0.01120000       0.01547000
   222  C          0.05993000       0.01120000       0.98453000
   223  C          0.44007000       0.51120000       0.01547000
   224  C          0.55993000       0.51120000       0.98453000
   225  H          0.89846600       0.05820400       0.02622500
   226  H          0.10153400       0.05820400       0.97377500
   227  H          0.39846600       0.55820400       0.02622500
   228  H          0.60153400       0.55820400       0.97377500
   229  C          0.00000000       0.79820000       0.00000000
   230  C          0.50000000       0.29820000       0.00000000
   231  C          0.00000000       0.65030000       0.00000000
   232  C          0.50000000       0.15030000       0.00000000
   233  C          0.00000000       0.08430000       0.00000000
   234  C          0.50000000       0.58430000       0.00000000
   235  H          0.00000000       0.18193200      -0.00000200
   236  H          0.50000000       0.68193200      -0.00000200
