data_VOJGIK
_symmetry_space_group_name_H-M    'P1'
_symmetry_Int_Tables_number       1
loop_
_symmetry_equiv_pos_site_id
_symmetry_equiv_pos_as_xyz
1 x,y,z
_cell_length_a                   10.9826
_cell_length_b                   5.9423
_cell_length_c                   5.7133
_cell_angle_alpha                90.0
_cell_angle_beta                 90.0
_cell_angle_gamma                90.0
loop_
_atom_site_label
_atom_site_type_symbol
_atom_site_fract_x
_atom_site_fract_y
_atom_site_fract_z
     1  F          0.42541000       0.25000000       0.75781000
     2  F          0.07459000       0.75000000       0.25781000
     3  F          0.92541000       0.25000000       0.74219000
     4  F          0.57459000       0.75000000       0.24219000
     5  H          0.44130000       0.25000000       0.93350000
     6  H          0.05870000       0.75000000       0.43350000
     7  H          0.94130000       0.25000000       0.56650000
     8  H          0.55870000       0.75000000       0.06650000
     9  O          0.47701000       0.25000000       0.16811000
    10  O          0.02299000       0.75000000       0.66811000
    11  O          0.97701000       0.25000000       0.33189000
    12  O          0.52299000       0.75000000       0.83189000
    13  O          0.60941000       0.25000000       0.46121000
    14  O          0.89059000       0.75000000       0.96121000
    15  O          0.10941000       0.25000000       0.03879000
    16  O          0.39059000       0.75000000       0.53879000
    17  C          0.69181000       0.25000000       0.07982000
    18  C          0.80819000       0.75000000       0.57982000
    19  C          0.19181000       0.25000000       0.42018000
    20  C          0.30819000       0.75000000       0.92018000
    21  C          0.58361000       0.25000000       0.23676000
    22  C          0.91639000       0.75000000       0.73676000
    23  C          0.08361000       0.25000000       0.26324000
    24  C          0.41639000       0.75000000       0.76324000
    25  H          0.67630000       0.25000000       0.92340000
    26  H          0.82370000       0.75000000       0.42340000
    27  H          0.17630000       0.25000000       0.57660000
    28  H          0.32370000       0.75000000       0.07660000
    29  H          0.75120000       0.35540000       0.14040000
    30  H          0.74880000       0.64460000       0.64040000
    31  H          0.25120000       0.14460000       0.35960000
    32  H          0.24880000       0.85540000       0.85960000
    33  H          0.24880000       0.64460000       0.85960000
    34  H          0.25120000       0.35540000       0.35960000
    35  H          0.74880000       0.85540000       0.64040000
    36  H          0.75120000       0.14460000       0.14040000
    37  H          0.55020000       0.25000000       0.53340000
    38  H          0.94980000       0.75000000       0.03340000
    39  H          0.05020000       0.25000000       0.96660000
    40  H          0.44980000       0.75000000       0.46660000
