data_VOJKUD
_symmetry_space_group_name_H-M    'P1'
_symmetry_Int_Tables_number       1
loop_
_symmetry_equiv_pos_site_id
_symmetry_equiv_pos_as_xyz
1 x,y,z
_cell_length_a                   7.15174
_cell_length_b                   11.30735
_cell_length_c                   15.26737
_cell_angle_alpha                97.1393
_cell_angle_beta                 96.7503
_cell_angle_gamma                99.2113
loop_
_atom_site_label
_atom_site_type_symbol
_atom_site_fract_x
_atom_site_fract_y
_atom_site_fract_z
     1  C          0.72456000       0.78173000       0.76652000
     2  C          0.27544000       0.21827000       0.23348000
     3  C          0.79626000       0.97273000       0.86552000
     4  C          0.20374000       0.02727000       0.13448000
     5  H          0.75550000       0.03380000       0.90110000
     6  H          0.24450000       0.96620000       0.09890000
     7  C         -0.01824000       0.69563000       0.70382000
     8  C          0.01824000       0.30437000       0.29618000
     9  H          0.11030000       0.70090000       0.69710000
    10  H          0.88970000       0.29910000       0.30290000
    11  C          0.05344000       0.89153000       0.80402000
    12  C          0.94656000       0.10847000       0.19598000
    13  H          0.18270000       0.89770000       0.79860000
    14  H          0.81730000       0.10230000       0.20140000
    15  C         -0.00754000       0.98063000       0.85672000
    16  C          0.00754000       0.01937000       0.14328000
    17  C          0.92126000       0.79003000       0.75754190
    18  C          0.07874000       0.20997000       0.24245810
    19  C          0.30724000       0.08033000       0.91332000
    20  C          0.69276000       0.91967000       0.08668000
    21  H          0.34750000       0.07040000       0.85480000
    22  H          0.65250000       0.92960000       0.14520000
    23  H          0.33260000       0.01170000       0.94220000
    24  H          0.66740000      -0.01170000       0.05780000
    25  C          0.66796000       0.87573000       0.82202000
    26  C          0.33204000       0.12427000       0.17798000
    27  H          0.53950000       0.87080000       0.82870000
    28  H          0.46050000       0.12920000       0.17130000
    29  C          0.85166000       0.59693000       0.66192000
    30  C          0.14834000       0.40307000       0.33808000
    31  C          0.09184000       0.49253000       0.61152000
    32  C          0.90816000       0.50747000       0.38848000
    33  H          0.15570000       0.50390000       0.67230000
    34  H          0.84430000       0.49610000       0.32770000
    35  H          0.15190000       0.55630000       0.58160000
    36  H          0.84810000       0.44370000       0.41840000
    37  C          0.10995000       0.37023000       0.56392000
    38  C          0.89005000       0.62977000       0.43608000
    39  C          0.65496000       0.58943000       0.66882000
    40  C          0.34504000       0.41057000       0.33118000
    41  H          0.56700000       0.52340000       0.63830000
    42  H          0.43300000       0.47660000       0.36170000
    43  C          0.42084000       0.19563000       0.96782000
    44  C          0.57916000       0.80437000       0.03218000
    45  C          0.59486000       0.67923000       0.72012000
    46  C          0.40514000       0.32077000       0.27988000
    47  H          0.46530000       0.67310000       0.72480000
    48  H          0.53470000       0.32690000       0.27520000
    49  O          0.10853000       0.08264190       0.90407160
    50  O          0.89147000       0.91735810       0.09592840
    51  O         -0.02393000       0.29402000       0.52853170
    52  O          0.02393000       0.70598000       0.47146830
    53  O          0.89517000       0.49856190       0.61125150
    54  O          0.10483000       0.50143810       0.38874850
    55  O          0.59303000       0.18182000      -0.00608810
    56  O          0.40697000       0.81818000       0.00608810
    57  H          0.65560000       0.24660000       0.01940000
    58  H          0.34440000       0.75340000       0.98060000
    59  O          0.28993000       0.36102000       0.56665190
    60  O          0.71007000       0.63898000       0.43334810
    61  H          0.29930000       0.29860000       0.53520000
    62  H          0.70070000       0.70140000       0.46480000
    63  O          0.35793000       0.28802000       0.98162000
    64  O          0.64207000       0.71198000       0.01838000
    65  C          0.10934000       0.55953000       0.15112000
    66  C          0.89066000       0.44047000       0.84888000
    67  C          0.18985000       0.08403000       0.43722000
    68  C          0.81015000       0.91597000       0.56278000
    69  H          0.07060000       0.09560000       0.45160000
    70  H          0.92940000       0.90440000       0.54840000
    71  C          0.15045000       0.45323000       0.10902000
    72  C          0.84955000       0.54677000       0.89098000
    73  H          0.27700000       0.44410000       0.10760000
    74  H          0.72300000       0.55590000       0.89240000
    75  C          0.91745000       0.56883000       0.14882000
    76  C          0.08255000       0.43117000       0.85118000
    77  H          0.88300000       0.63940000       0.17500000
    78  H          0.11700000       0.36060000       0.82500000
    79  C          0.20205000       0.97903000       0.38372000
    80  C          0.79795000       0.02097000       0.61628000
    81  H          0.09290000       0.92090000       0.36340000
    82  H          0.90710000       0.07910000       0.63660000
    83  C          0.40345000       0.84763000       0.30202000
    84  C          0.59655000       0.15237000       0.69798000
    85  H          0.48150000       0.80390000       0.33800000
    86  H          0.51850000       0.19610000       0.66200000
    87  H          0.47520000       0.87260000       0.25530000
    88  H          0.52480000       0.12740000       0.74470000
    89  C          0.53395000       0.05093000       0.39322000
    90  C          0.46605000       0.94907000       0.60678000
    91  H          0.65440000       0.04250000       0.37890000
    92  H          0.34560000       0.95750000       0.62110000
    93  C          0.27185000       0.65863000       0.19532000
    94  C          0.72815000       0.34137000       0.80468000
    95  H          0.33240000       0.69420000       0.14880000
    96  H          0.66760000       0.30580000       0.85120000
    97  H          0.36580000       0.62160000       0.22810000
    98  H          0.63420000       0.37840000       0.77190000
    99  C          0.37695000       0.96003000       0.36012000
   100  C          0.62305000       0.03997000       0.63988000
   101  C          0.00525000       0.36113000       0.06942000
   102  C         -0.00525000       0.63887000       0.93058000
   103  H          0.03580000       0.29000000       0.04170000
   104  H          0.96420000       0.71000000       0.95830000
   105  C          0.51125000       0.15303000       0.44712000
   106  C          0.48875000       0.84697000       0.55288000
   107  H          0.61800000       0.21230000       0.46880000
   108  H          0.38200000       0.78770000       0.53120000
   109  C          0.22355000       0.75983000       0.25812000
   110  C          0.77645000       0.24017000       0.74188000
   111  H          0.15720000       0.72590000       0.30370000
   112  H          0.84280000       0.27410000       0.69630000
   113  H          0.13860000       0.80290000       0.22540000
   114  H          0.86140000       0.19710000       0.77460000
   115  C          0.77905000       0.47313000       0.10762000
   116  C          0.22095000       0.52687000       0.89238000
   117  H          0.65120000       0.48050000       0.10630000
   118  H          0.34880000       0.51950000       0.89370000
   119  N          0.34164000       0.16992000       0.46930190
   120  N          0.65836000       0.83008000       0.53069810
   121  N          0.82176000       0.36992000       0.06929180
   122  N          0.17824000       0.63008000       0.93070820
