data_VOKCOQ
_symmetry_space_group_name_H-M    'P1'
_symmetry_Int_Tables_number       1
loop_
_symmetry_equiv_pos_site_id
_symmetry_equiv_pos_as_xyz
1 x,y,z
_cell_length_a                   7.93402
_cell_length_b                   20.23515
_cell_length_c                   18.58485
_cell_angle_alpha                90.0
_cell_angle_beta                 91.5312
_cell_angle_gamma                90.0
loop_
_atom_site_label
_atom_site_type_symbol
_atom_site_fract_x
_atom_site_fract_y
_atom_site_fract_z
     1  Br         0.59134700       0.16347200       0.84625300
     2  Br         0.90865300       0.66347200       0.65374700
     3  Br         0.40865300       0.83652800       0.15374700
     4  Br         0.09134700       0.33652800       0.34625300
     5  S          0.65783100       0.35579400       0.87602400
     6  S          0.84216900       0.85579400       0.62397600
     7  S          0.34216900       0.64420600       0.12397600
     8  S          0.15783100       0.14420600       0.37602400
     9  S          0.56170110       0.37400400       0.72364400
    10  S          0.93829890       0.87400400       0.77635600
    11  S          0.43829890       0.62599600       0.27635600
    12  S          0.06170110       0.12599600       0.22364400
    13  C          0.45354000       0.37211160       0.90937170
    14  C          0.04646000       0.87211160       0.59062830
    15  C          0.54646000       0.62788840       0.09062830
    16  C          0.95354000       0.12788840       0.40937170
    17  C          0.43774000       0.39927170       0.97872180
    18  C          0.06226000       0.89927170       0.52127820
    19  C          0.56226000       0.60072830       0.02127820
    20  C          0.93774000       0.10072830       0.47872180
    21  C          0.58684000       0.41723170       0.02465180
    22  C          0.91316000       0.91723170       0.47534820
    23  C          0.41316000       0.58276830       0.97534820
    24  C          0.08684000       0.08276830       0.52465180
    25  C          0.76464000       0.26897180       0.77692170
    26  C          0.73536000       0.76897180       0.72307830
    27  C          0.23536000       0.73102820       0.22307830
    28  C          0.26464000       0.23102820       0.27692170
    29  C          0.14914000       0.36922000       0.89692000
    30  C          0.35086000       0.86922000       0.60308000
    31  C          0.85086000       0.63078000       0.10308000
    32  C          0.64914000       0.13078000       0.39692000
    33  H          0.05300000       0.35930000       0.86930000
    34  H          0.44700000       0.85930000       0.63070000
    35  H          0.94700000       0.64070000       0.13070000
    36  H          0.55300000       0.14070000       0.36930000
    37  C          0.46964000       0.25752180       0.65335190
    38  C          0.03036000       0.75752180       0.84664810
    39  C          0.53036000       0.74247820       0.34664810
    40  C          0.96964000       0.24247820       0.15335190
    41  H          0.52290000       0.23530000       0.69140000
    42  H          0.97710000       0.73530000       0.80860000
    43  H          0.47710000       0.76470000       0.30860000
    44  H          0.02290000       0.26470000       0.19140000
    45  C          0.46964000       0.32674170       0.65236170
    46  C          0.03036000       0.82674170       0.84763830
    47  C          0.53036000       0.67325830       0.34763830
    48  C          0.96964000       0.17325830       0.15236170
    49  C          0.61164000       0.31135170       0.79173160
    50  C          0.88836000       0.81135170       0.70826840
    51  C          0.38836000       0.68864830       0.20826840
    52  C          0.11164000       0.18864830       0.29173160
    53  H          0.51320000       0.28280000       0.79790000
    54  H         -0.01320000       0.78280000       0.70210000
    55  H          0.48680000       0.71720000       0.20210000
    56  H          0.01320000       0.21720000       0.29790000
    57  C          0.38615000       0.43192000       0.58732000
    58  C          0.11385000       0.93192000       0.91268000
    59  C          0.61385000       0.56808000       0.41268000
    60  C          0.88615000       0.06808000       0.08732000
    61  C          0.77125000       0.20272000       0.79612000
    62  C          0.72875000       0.70272000       0.70388000
    63  C          0.22875000       0.79728000       0.20388000
    64  C          0.27125000       0.29728000       0.29612000
    65  C          0.30644000       0.35795180       0.86910190
    66  C          0.19356000       0.85795180       0.63089810
    67  C          0.69356000       0.64204820       0.13089810
    68  C          0.80644000       0.14204820       0.36910190
    69  H          0.31460000       0.34070000       0.82290000
    70  H          0.18540000       0.84070000       0.67710000
    71  H          0.68540000       0.65930000       0.17710000
    72  H          0.81460000       0.15930000       0.32290000
    73  C          0.39115000       0.22172000       0.59832000
    74  C          0.10885000       0.72172000       0.90168000
    75  C          0.60885000       0.77828000       0.40168000
    76  C          0.89115000       0.27828000       0.09832000
    77  H          0.39210000       0.17580000       0.60010000
    78  H          0.10790000       0.67580000       0.89990000
    79  H          0.60790000       0.82420000       0.39990000
    80  H          0.89210000       0.32420000       0.10010000
    81  C          0.27615000       0.40982000       0.00472000
    82  C          0.22385000       0.90982000       0.49528000
    83  C          0.72385000       0.59018000      -0.00472000
    84  C          0.77615000       0.09018000       0.50472000
    85  H          0.26490000       0.42760000       0.05050000
    86  H          0.23510000       0.92760000       0.44950000
    87  H          0.73510000       0.57240000       0.94950000
    88  H          0.76490000       0.07240000       0.55050000
    89  C          0.13315000       0.39482000       0.96452000
    90  C          0.36685000       0.89482000       0.53548000
    91  C          0.86685000       0.60518000       0.03548000
    92  C          0.63315000       0.10518000       0.46452000
    93  H          0.02690000       0.40190000       0.98300000
    94  H          0.47310000       0.90190000       0.51700000
    95  H          0.97310000       0.59810000       0.01700000
    96  H          0.52690000       0.09810000       0.48300000
    97  C          0.38914000       0.35870190       0.59336180
    98  C          0.11086000       0.85870190       0.90663820
    99  C          0.61086000       0.64129810       0.40663820
   100  C          0.88914000       0.14129810       0.09336180
   101  C          0.90294000       0.29502000       0.74212000
   102  C          0.59706000       0.79502000       0.75788000
   103  C          0.09706000       0.70498000       0.25788000
   104  C          0.40294000       0.20498000       0.24212000
   105  H          0.90280000       0.33950000       0.72940000
   106  H          0.59720000       0.83950000       0.77060000
   107  H          0.09720000       0.66050000       0.27060000
   108  H          0.40280000       0.16050000       0.22940000
   109  C          0.31226000       0.25302000       0.54152000
   110  C          0.18774000       0.75302000       0.95848000
   111  C          0.68774000       0.74698000       0.45848000
   112  C          0.81226000       0.24698000       0.04152000
   113  H          0.25970000       0.22870000       0.50490000
   114  H          0.24030000       0.72870000      -0.00490000
   115  H          0.74030000       0.77130000       0.49510000
   116  H          0.75970000       0.27130000       0.00490000
   117  C          0.04085000       0.25623000       0.72602000
   118  C          0.45915000       0.75623000       0.77398000
   119  C          0.95915000       0.74377000       0.27398000
   120  C          0.54085000       0.24377000       0.22602000
   121  H          0.13310000       0.27480000       0.70370000
   122  H          0.36690000       0.77480000       0.79630000
   123  H          0.86690000       0.72520000       0.29630000
   124  H          0.63310000       0.22520000       0.20370000
   125  C          0.90707000       0.16302000       0.77833000
   126  C          0.59293000       0.66302000       0.72167000
   127  C          0.09293000       0.83698000       0.22167000
   128  C          0.40707000       0.33698000       0.27833000
   129  H          0.90780000       0.11840000       0.79020000
   130  H          0.59220000       0.61840000       0.70980000
   131  H          0.09220000       0.88160000       0.20980000
   132  H          0.40780000       0.38160000       0.29020000
   133  C          0.04037000       0.19043000       0.74313000
   134  C          0.45963000       0.69043000       0.75687000
   135  C          0.95963000       0.80957000       0.25687000
   136  C          0.54037000       0.30957000       0.24313000
   137  H          0.13100000       0.16400000       0.73070000
   138  H          0.36900000       0.66400000       0.76930000
   139  H          0.86900000       0.83600000       0.26930000
   140  H          0.63100000       0.33600000       0.23070000
   141  C          0.31176000       0.32092000       0.53942000
   142  C          0.18824000       0.82092000       0.96058000
   143  C          0.68824000       0.67908000       0.46058000
   144  C          0.81176000       0.17908000       0.03942000
   145  H          0.25800000       0.34220000       0.50080000
   146  H          0.24200000       0.84220000      -0.00080000
   147  H          0.74200000       0.65780000       0.49920000
   148  H          0.75800000       0.15780000       0.00080000
   149  O          0.73003000       0.41353140       0.00405130
   150  O          0.76997000       0.91353140       0.49594870
   151  O          0.26997000       0.58646860      -0.00405130
   152  O          0.23003000       0.08646860       0.50405130
   153  O          0.46854000       0.46849130       0.62660150
   154  O          0.03146000       0.96849130       0.87339850
   155  O          0.53146000       0.53150870       0.37339850
   156  O          0.96854000       0.03150870       0.12660150
   157  O          0.55093000       0.43790160       0.08981140
   158  O          0.94907000       0.93790160       0.41018860
   159  O          0.44907000       0.56209840       0.91018860
   160  O          0.05093000       0.06209840       0.58981140
   161  O          0.28225000       0.45334180       0.53624190
   162  O          0.21775000       0.95334180       0.96375810
   163  O          0.71775000       0.54665820       0.46375810
   164  O          0.78225000       0.04665820       0.03624190
   165  H          0.28970000       0.49651000       0.53230000
   166  H          0.21030000      -0.00349000       0.96770000
   167  H          0.71030000       0.50349000       0.46770000
   168  H          0.78970000       0.00349000       0.03230000
   169  N          0.24365000       0.08057190       0.97913810
   170  N          0.25635000       0.58057190       0.52086190
   171  N          0.75635000       0.91942810       0.02086190
   172  N          0.74365000       0.41942810       0.47913810
   173  C          0.27048000       0.21393000      -0.00503000
   174  C          0.22952000       0.71393000       0.50503000
   175  C          0.72952000       0.78607000       0.00503000
   176  C          0.77048000       0.28607000       0.49497000
   177  H          0.27780000       0.25950000      -0.00020000
   178  H          0.22220000       0.75950000       0.50020000
   179  H          0.72220000       0.74050000       0.00020000
   180  H          0.77780000       0.24050000       0.49980000
   181  C          0.35567000       0.17383000       0.04203000
   182  C          0.14433000       0.67383000       0.45797000
   183  C          0.64433000       0.82617000       0.95797000
   184  C          0.85567000       0.32617000       0.54203000
   185  H          0.42210000       0.19110000       0.07940000
   186  H          0.07790000       0.69110000       0.42060000
   187  H          0.57790000       0.80890000       0.92060000
   188  H          0.92210000       0.30890000       0.57940000
   189  C          0.33927000       0.10463000       0.03163000
   190  C          0.16073000       0.60463000       0.46837000
   191  C          0.66073000       0.89537000       0.96837000
   192  C          0.83927000       0.39537000       0.53163000
   193  H          0.39700000       0.07580000       0.06240000
   194  H          0.10300000       0.57580000       0.43760000
   195  H          0.60300000       0.92420000       0.93760000
   196  H          0.89700000       0.42420000       0.56240000
   197  C          0.16547000       0.12183000       0.93617000
   198  C          0.33453000       0.62183000       0.56383000
   199  C          0.83453000       0.87817000       0.06383000
   200  C          0.66547000       0.37817000       0.43617000
   201  H          0.09780000       0.10470000       0.89910000
   202  H          0.40220000       0.60470000       0.60090000
   203  H          0.90220000       0.89530000       0.10090000
   204  H          0.59780000       0.39530000       0.39910000
   205  C          0.17698000       0.18783000       0.94256000
   206  C          0.32302000       0.68783000       0.55744000
   207  C          0.82302000       0.81217000       0.05744000
   208  C          0.67698000       0.31217000       0.44256000
   209  H          0.11910000       0.21510000       0.91000000
   210  H          0.38090000       0.71510000       0.59000000
   211  H          0.88090000       0.78490000       0.09000000
   212  H          0.61910000       0.28490000       0.41000000
   213  C          0.31574000       0.03112170       0.67298180
   214  C          0.18426000       0.53112170       0.82701820
   215  C          0.68426000       0.96887830       0.32701820
   216  C          0.81574000       0.46887830       0.17298180
   217  H          0.22560000       0.04430000       0.64330000
   218  H          0.27440000       0.54430000       0.85670000
   219  H          0.77440000       0.95570000       0.35670000
   220  H          0.72560000       0.45570000       0.14330000
   221  N          0.29266000       0.01212000       0.73963000
   222  N          0.20734000       0.51212000       0.76037000
   223  N          0.70734000       0.98788000       0.26037000
   224  N          0.79266000       0.48788000       0.23963000
   225  C          0.46886000       0.03082000       0.65003000
   226  C          0.03114000       0.53082000       0.84997000
   227  C          0.53114000       0.96918000       0.34997000
   228  C          0.96886000       0.46918000       0.15003000
   229  H          0.48530000       0.04320000       0.60250000
   230  H          0.01470000       0.54320000       0.89750000
   231  H          0.51470000       0.95680000       0.39750000
   232  H         -0.01470000       0.45680000       0.10250000
   233  C          0.58436000      -0.00492000       0.76133000
   234  C          0.91564000       0.49508000       0.73867000
   235  C          0.41564000       0.00492000       0.23867000
   236  C          0.08436000       0.50492000       0.26133000
   237  H          0.67510000       0.98370000       0.79140000
   238  H          0.82490000       0.48370000       0.70860000
   239  H          0.32490000       0.01630000       0.20860000
   240  H          0.17510000       0.51630000       0.29140000
   241  C          0.42506000      -0.00592000       0.78562000
   242  C          0.07494000       0.49408000       0.71438000
   243  C          0.57494000       0.00592000       0.21438000
   244  C          0.92506000       0.50592000       0.28562000
   245  H          0.40460000       0.98140000       0.83270000
   246  H          0.09540000       0.48140000       0.66730000
   247  H          0.59540000       0.01860000       0.16730000
   248  H          0.90460000       0.51860000       0.33270000
   249  C          0.60916000       0.01322000       0.69163000
   250  C          0.89084000       0.51322000       0.80837000
   251  C          0.39084000       0.98678000       0.30837000
   252  C          0.10916000       0.48678000       0.19163000
   253  H          0.71650000       0.01370000       0.67270000
   254  H          0.78350000       0.51370000       0.82730000
   255  H          0.28350000       0.98630000       0.32730000
   256  H          0.21650000       0.48630000       0.17270000
   257  H          0.18030000       0.01430000       0.75330000
   258  H          0.31970000       0.51430000       0.74670000
   259  H          0.81970000       0.98570000       0.24670000
   260  H          0.68030000       0.48570000       0.25330000
