data_VOKLEQ
_symmetry_space_group_name_H-M    'P1'
_symmetry_Int_Tables_number       1
loop_
_symmetry_equiv_pos_site_id
_symmetry_equiv_pos_as_xyz
1 x,y,z
_cell_length_a                   8.87232
_cell_length_b                   12.53593
_cell_length_c                   22.21935
_cell_angle_alpha                90.0
_cell_angle_beta                 90.0
_cell_angle_gamma                90.0
loop_
_atom_site_label
_atom_site_type_symbol
_atom_site_fract_x
_atom_site_fract_y
_atom_site_fract_z
     1  O          0.53496180       0.92206130       0.22129700
     2  O          0.03496180       0.57793870       0.77870300
     3  O          0.46503820       0.42206130       0.27870300
     4  O          0.96503820       0.07793870       0.72129700
     5  O          0.86463000       0.94652170       0.33413900
     6  O          0.36463000       0.55347830       0.66586100
     7  O          0.13537000       0.44652170       0.16586100
     8  O          0.63537000       0.05347830       0.83413900
     9  O          0.40104160       0.67456130       0.44951700
    10  O          0.90104160       0.82543870       0.55048300
    11  O          0.59895840       0.17456130       0.05048300
    12  O          0.09895840       0.32543870       0.94951700
    13  O          0.20355170       0.59134140       0.40669800
    14  O          0.70355170       0.90865860       0.59330200
    15  O          0.79644830       0.09134140       0.09330200
    16  O          0.29644830       0.40865860       0.90669800
    17  O          0.29388180       0.89445130       0.19536700
    18  O          0.79388180       0.60554870       0.80463300
    19  O          0.70611820       0.39445130       0.30463300
    20  O          0.20611820       0.10554870       0.69536700
    21  N          0.71158190       0.54610140       0.38171800
    22  N          0.21158190       0.95389860       0.61828200
    23  N          0.28841810       0.04610140       0.11828200
    24  N          0.78841810       0.45389860       0.88171800
    25  H          0.70948300       0.49869500       0.34551700
    26  H          0.20948300       0.00130500       0.65448300
    27  H          0.29051700      -0.00130500       0.15448300
    28  H          0.79051700       0.50130500       0.84551700
    29  N          0.44481180       0.57321140       0.36928800
    30  N          0.94481180       0.92678860       0.63071200
    31  N          0.55518820       0.07321140       0.13071200
    32  N          0.05518820       0.42678860       0.86928800
    33  H          0.42967200       0.52389200       0.34175100
    34  H          0.92967200       0.97610800       0.65824900
    35  H          0.57032800       0.02389200       0.15824900
    36  H          0.07032800       0.47610800       0.84175100
    37  C          0.71043000       0.58612000       0.53850100
    38  C          0.21043000       0.91388000       0.46149900
    39  C          0.28957000       0.08612000       0.96149900
    40  C          0.78957000       0.41388000       0.03850100
    41  H          0.73396200       0.51902100       0.55909800
    42  H          0.23396200       0.98097900       0.44090200
    43  H          0.26603800       0.01902100       0.94090200
    44  H          0.76603800       0.48097900       0.05909800
    45  H          0.65693900       0.63377000       0.56619200
    46  H          0.15693900       0.86623000       0.43380800
    47  H          0.34306100       0.13377000       0.93380800
    48  H          0.84306100       0.36623000       0.06619200
    49  H          0.80407800       0.62018200       0.52524300
    50  H          0.30407800       0.87981800       0.47475700
    51  H          0.19592200       0.12018200       0.97475700
    52  H          0.69592200       0.37981800       0.02524300
    53  C          0.61073000       0.56320180       0.48379900
    54  C          0.11073000       0.93679820       0.51620100
    55  C          0.38927000       0.06320180       0.01620100
    56  C          0.88927000       0.43679820       0.98379900
    57  H          0.51539300       0.53058000       0.49927600
    58  H          0.01539300       0.96942000       0.50072400
    59  H          0.48460700       0.03058000       0.00072400
    60  H         -0.01539300       0.46942000      -0.00072400
    61  C          0.56432000       0.66236180       0.44492900
    62  C          0.06432000       0.83763820       0.55507100
    63  C          0.43568000       0.16236180       0.05507100
    64  C          0.93568000       0.33763820       0.94492900
    65  C          0.58772000       0.62564170       0.37913900
    66  C          0.08772000       0.87435830       0.62086100
    67  C          0.41228000       0.12564170       0.12086100
    68  C          0.91228000       0.37435830       0.87913900
    69  C          0.61962000       0.71516160       0.33268900
    70  C          0.11962000       0.78483840       0.66731100
    71  C          0.38038000       0.21516160       0.16731100
    72  C          0.88038000       0.28483840       0.83268900
    73  C          0.62572000       0.66958170       0.26964900
    74  C          0.12572000       0.83041830       0.73035100
    75  C          0.37428000       0.16958170       0.23035100
    76  C          0.87428000       0.33041830       0.76964900
    77  C          0.73122000       0.62829180       0.23412100
    78  C          0.23122000       0.87170820       0.76587900
    79  C          0.26878000       0.12829180       0.26587900
    80  C          0.76878000       0.37170820       0.73412100
    81  C          0.89103000       0.59902000       0.24853100
    82  C          0.39103000       0.90098000       0.75146900
    83  C          0.10897000       0.09902000       0.25146900
    84  C          0.60897000       0.40098000       0.74853100
    85  H          0.94873800       0.59601300       0.21045400
    86  H          0.44873800       0.90398700       0.78954600
    87  H          0.05126200       0.09601300       0.28954600
    88  H          0.55126200       0.40398700       0.71045400
    89  H          0.89174700       0.52650000       0.26619300
    90  H          0.39174700       0.97350000       0.73380700
    91  H          0.10825300       0.02650000       0.23380700
    92  H          0.60825300       0.47350000       0.76619300
    93  C          0.41512000       0.87325170       0.22578100
    94  C          0.91512000       0.62674830       0.77421900
    95  C          0.58488000       0.37325170       0.27421900
    96  C          0.08488000       0.12674830       0.72578100
    97  C          0.39992000       0.77851170       0.26742900
    98  C          0.89992000       0.72148830       0.73257100
    99  C          0.60008000       0.27851170       0.23257100
   100  C          0.10008000       0.22148830       0.76742900
   101  H          0.29079400       0.76395200       0.27521900
   102  H          0.79079400       0.73604800       0.72478100
   103  H          0.70920600       0.26395200       0.22478100
   104  H          0.20920600       0.23604800       0.77521900
   105  C          0.48352000       0.79546170       0.32820900
   106  C          0.98352000       0.70453830       0.67179100
   107  C          0.51648000       0.29546170       0.17179100
   108  C          0.01648000       0.20453830       0.82820900
   109  H          0.41307400       0.78342500       0.36208800
   110  H          0.91307400       0.71657500       0.63791200
   111  H          0.58692600       0.28342500       0.13791200
   112  H          0.08692600       0.21657500       0.86208800
   113  H          0.52111700       0.86968000       0.33072600
   114  H          0.02111700       0.63032000       0.66927400
   115  H          0.47888300       0.36968000       0.16927400
   116  H          0.97888300       0.13032000       0.83072600
   117  C          0.67822000       0.48382170       0.43769100
   118  C          0.17822000       0.01617830       0.56230900
   119  C          0.32178000       0.98382170       0.06230900
   120  C          0.82178000       0.51617830       0.93769100
   121  H          0.77166800       0.45153200       0.45380300
   122  H          0.27166800       0.04846800       0.54619700
   123  H          0.22833200       0.95153200       0.04619700
   124  H          0.72833200       0.54846800       0.95380300
   125  H          0.60535700       0.42602100       0.42894400
   126  H          0.10535700       0.07397900       0.57105600
   127  H          0.39464300       0.92602100       0.07105600
   128  H          0.89464300       0.57397900       0.92894400
   129  C          0.86592000       0.59486180       0.38990100
   130  C          0.36592000       0.90513820       0.61009900
   131  C          0.13408000       0.09486180       0.11009900
   132  C          0.63408000       0.40513820       0.88990100
   133  H          0.94196500       0.54021100       0.37929000
   134  H          0.44196500       0.95978900       0.62071000
   135  H          0.05803500       0.04021100       0.12071000
   136  H          0.55803500       0.45978900       0.87929000
   137  H          0.87907500       0.61150600       0.43313300
   138  H          0.37907500       0.88849400       0.56686700
   139  H          0.12092500       0.11150600       0.06686700
   140  H          0.62092500       0.38849400       0.93313300
   141  C          0.90122000       0.69596180       0.35385100
   142  C          0.40122000       0.80403820       0.64614900
   143  C          0.09878000       0.19596180       0.14614900
   144  C          0.59878000       0.30403820       0.85385100
   145  H          0.98123400       0.73352900       0.37738900
   146  H          0.48123400       0.76647100       0.62261100
   147  H          0.01876600       0.23352900       0.12261100
   148  H          0.51876600       0.26647100       0.87738900
   149  C          0.76252000       0.77233180       0.35521100
   150  C          0.26252000       0.72766820       0.64478900
   151  C          0.23748000       0.27233180       0.14478900
   152  C          0.73748000       0.22766820       0.85521100
   153  C          0.73602000       0.81064180       0.41926100
   154  C          0.23602000       0.68935820       0.58073900
   155  C          0.26398000       0.31064180       0.08073900
   156  C          0.76398000       0.18935820       0.91926100
   157  H          0.78994400       0.87193800       0.43223700
   158  H          0.28994400       0.62806200       0.56776300
   159  H          0.21005600       0.37193800       0.06776300
   160  H          0.71005600       0.12806200       0.93223700
   161  C          0.64292000       0.76475180       0.45862900
   162  C          0.14292000       0.73524820       0.54137100
   163  C          0.35708000       0.26475180       0.04137100
   164  C          0.85708000       0.23524820       0.95862900
   165  H          0.62610400       0.79816600       0.49640800
   166  H          0.12610400       0.70183400       0.50359200
   167  H          0.37389600       0.29816600       0.00359200
   168  H          0.87389600       0.20183400      -0.00359200
   169  C          0.79963000       0.86871190       0.31573110
   170  C          0.29963000       0.63128810       0.68426890
   171  C          0.20037000       0.36871190       0.18426890
   172  C          0.70037000       0.13128810       0.81573110
   173  H          0.77004300       0.86713800       0.27464600
   174  H          0.27004300       0.63286200       0.72535400
   175  H          0.22995700       0.36713800       0.22535400
   176  H          0.72995700       0.13286200       0.77464600
   177  C          0.97213000       0.67442000       0.29169110
   178  C          0.47213000       0.82558000       0.70830890
   179  C          0.02787000       0.17442000       0.20830890
   180  C          0.52787000       0.32558000       0.79169110
   181  H          0.98372500       0.74392600       0.27106100
   182  H          0.48372500       0.75607400       0.72893900
   183  H          0.01627500       0.24392600       0.22893900
   184  H          0.51627500       0.25607400       0.77106100
   185  H          0.07465100       0.64573900       0.29843000
   186  H          0.57465100       0.85426100       0.70157000
   187  H          0.92534900       0.14573900       0.20157000
   188  H          0.42534900       0.35426100       0.79843000
   189  C          0.66333000       0.60419180       0.17279100
   190  C          0.16333000       0.89580820       0.82720900
   191  C          0.33667000       0.10419180       0.32720900
   192  C          0.83667000       0.39580820       0.67279100
   193  H          0.64187700       0.52707300       0.16841100
   194  H          0.14187700       0.97292700       0.83158900
   195  H          0.35812300       0.02707300       0.33158900
   196  H          0.85812300       0.47292700       0.66841100
   197  H          0.73191200       0.62679200       0.14004200
   198  H          0.23191200       0.87320800       0.85995800
   199  H          0.26808800       0.12679200       0.35995800
   200  H          0.76808800       0.37320800       0.64004200
   201  C          0.51593000       0.67013190       0.17200100
   202  C          0.01593000       0.82986810       0.82799900
   203  C          0.48407000       0.17013190       0.32799900
   204  C          0.98407000       0.32986810       0.67200100
   205  H          0.53274100       0.74160200       0.15427100
   206  H          0.03274100       0.75839800       0.84572900
   207  H          0.46725900       0.24160200       0.34572900
   208  H          0.96725900       0.25839800       0.65427100
   209  H          0.43597200       0.63308200       0.14900900
   210  H          0.93597200       0.86691800       0.85099100
   211  H          0.56402800       0.13308200       0.35099100
   212  H          0.06402800       0.36691800       0.64900900
   213  C          0.47472000       0.67834170       0.23915900
   214  C          0.97472000       0.82165830       0.76084100
   215  C          0.52528000       0.17834170       0.26084100
   216  C          0.02528000       0.32165830       0.73915900
   217  H          0.41325500       0.61441700       0.25026600
   218  H          0.91325500       0.88558300       0.74973400
   219  H          0.58674500       0.11441700       0.24973400
   220  H          0.08674500       0.38558300       0.75026600
   221  C          0.33742000       0.60875180       0.40723100
   222  C          0.83742000       0.89124820       0.59276900
   223  C          0.66258000       0.10875180       0.09276900
   224  C          0.16258000       0.39124820       0.90723100
   225  N          0.97204000       0.67923000       0.03328130
   226  N          0.47204000       0.82077000       0.96671870
   227  N          0.02796000       0.17923000       0.46671870
   228  N          0.52796000       0.32077000       0.53328130
   229  C          0.82088000       0.82703000       0.06612000
   230  C          0.32088000       0.67297000       0.93388000
   231  C          0.17912000       0.32703000       0.43388000
   232  C          0.67912000       0.17297000       0.56612000
   233  H          0.73756400       0.87235300       0.05773900
   234  H          0.23756400       0.62764700       0.94226100
   235  H          0.26243600       0.37235300       0.44226100
   236  H          0.76243600       0.12764700       0.55773900
   237  C          0.89668000       0.83754000       0.11612000
   238  C          0.39668000       0.66246000       0.88388000
   239  C          0.10332000       0.33754000       0.38388000
   240  C          0.60332000       0.16246000       0.61612000
   241  H          0.86947500       0.89080200       0.14444300
   242  H          0.36947500       0.60919800       0.85555700
   243  H          0.13052500       0.39080200       0.35555700
   244  H          0.63052500       0.10919800       0.64444300
   245  C          0.05214000       0.68654000       0.08402170
   246  C          0.55214000       0.81346000       0.91597830
   247  C          0.94786000       0.18654000       0.41597830
   248  C          0.44786000       0.31346000       0.58402170
   249  H          0.13126500       0.63733900       0.09169100
   250  H          0.63126500       0.86266100       0.90830900
   251  H          0.86873500       0.13733900       0.40830900
   252  H          0.36873500       0.36266100       0.59169100
   253  C          0.01806000       0.76965000       0.12741160
   254  C          0.51806000       0.73035000       0.87258840
   255  C          0.98194000       0.26965000       0.37258840
   256  C          0.48194000       0.23035000       0.62741160
   257  H          0.07707300       0.77764300       0.16277800
   258  H          0.57707300       0.72235700       0.83722200
   259  H          0.92292700       0.27764300       0.33722200
   260  H          0.42292700       0.22235700       0.66277800
   261  C          0.86216000       0.75073000       0.02632000
   262  C          0.36216000       0.74927000       0.97368000
   263  C          0.13784000       0.25073000       0.47368000
   264  C          0.63784000       0.24927000       0.52632000
   265  H          0.80721700       0.74786100       0.98963400
   266  H          0.30721700       0.75213900       0.01036600
   267  H          0.19278300       0.24786100       0.51036600
   268  H          0.69278300       0.25213900       0.48963400
