data_VOLZUU
_symmetry_space_group_name_H-M    'P1'
_symmetry_Int_Tables_number       1
loop_
_symmetry_equiv_pos_site_id
_symmetry_equiv_pos_as_xyz
1 x,y,z
_cell_length_a                   9.52801
_cell_length_b                   10.62901
_cell_length_c                   12.75701
_cell_angle_alpha                101.73601
_cell_angle_beta                 93.26901
_cell_angle_gamma                97.23201
loop_
_atom_site_label
_atom_site_type_symbol
_atom_site_fract_x
_atom_site_fract_y
_atom_site_fract_z
     1  P          0.20814500       0.12904500       0.26824400
     2  P          0.79185500       0.87095500       0.73175600
     3  C          0.01872000       0.08524190       0.27914170
     4  C          0.98128000       0.91475810       0.72085830
     5  H          0.97340000       0.06820000       0.20400000
     6  H          0.02660000       0.93180000       0.79600000
     7  C          0.94638000       0.19362000       0.34268180
     8  C          0.05362000       0.80638000       0.65731820
     9  H         -0.00610000       0.27870000       0.33390000
    10  H          0.00610000       0.72130000       0.66610000
    11  H          0.95620000       0.19170000       0.42000000
    12  H          0.04380000       0.80830000       0.58000000
    13  C          0.78828000       0.17842000       0.30440190
    14  C          0.21172000       0.82158000       0.69559810
    15  O          0.74833830       0.11811180       0.21311140
    16  O          0.25166170       0.88188820       0.78688860
    17  O          0.70788830       0.23442180       0.37105140
    18  O          0.29211170       0.76557820       0.62894860
    19  C          0.98008000       0.95838000       0.31802000
    20  C          0.01992000       0.04162000       0.68198000
    21  H          0.00670000       0.97320000       0.39540000
    22  H         -0.00670000       0.02680000       0.60460000
    23  H          0.03140000       0.89130000       0.27970000
    24  H          0.96860000       0.10870000       0.72030000
    25  H          0.87770000       0.92990000       0.30390000
    26  H          0.12230000       0.07010000       0.69610000
    27  C          0.31512000       0.18555170       0.39609150
    28  C          0.68488000       0.81444830       0.60390850
    29  H          0.41650000       0.19220000       0.37890000
    30  H          0.58350000       0.80780000       0.62110000
    31  C          0.29742000       0.08957190       0.47148160
    32  C          0.70258000       0.91042810       0.52851840
    33  H          0.19970000       0.08320000       0.49430000
    34  H          0.80030000       0.91680000       0.50570000
    35  H          0.31270000       0.00240000       0.43280000
    36  H          0.68730000      -0.00240000       0.56720000
    37  C          0.40383000       0.13502000       0.56989180
    38  C          0.59617000       0.86498000       0.43010820
    39  H          0.38880000       0.07440000       0.61900000
    40  H          0.61120000       0.92560000       0.38100000
    41  H          0.50130000       0.13380000       0.54720000
    42  H          0.49870000       0.86620000       0.45280000
    43  C          0.38853000       0.27132000       0.62930180
    44  C          0.61147000       0.72868000       0.37069820
    45  H          0.46300000       0.29990000       0.68980000
    46  H          0.53700000       0.70010000       0.31020000
    47  H          0.29500000       0.27050000       0.65940000
    48  H          0.70500000       0.72950000       0.34060000
    49  C          0.40142000       0.36642000       0.55484170
    50  C          0.59858000       0.63358000       0.44515830
    51  H          0.49850000       0.37400000       0.53070000
    52  H          0.50150000       0.62600000       0.46930000
    53  H          0.38600000       0.45310000       0.59450000
    54  H          0.61400000       0.54690000       0.40550000
    55  C          0.29322000       0.32209180       0.45680160
    56  C          0.70678000       0.67790820       0.54319840
    57  H          0.30530000       0.38410000       0.40860000
    58  H          0.69470000       0.61590000       0.59140000
    59  H          0.19570000       0.31980000       0.48010000
    60  H          0.80430000       0.68020000       0.51990000
    61  C          0.22542000       0.26335180       0.19741160
    62  C          0.77458000       0.73664820       0.80258840
    63  H          0.17770000       0.33300000       0.24010000
    64  H          0.82230000       0.66700000       0.75990000
    65  C          0.38032000       0.32502000       0.19352170
    66  C          0.61968000       0.67498000       0.80647830
    67  H          0.42910000       0.34790000       0.26690000
    68  H          0.57090000       0.65210000       0.73310000
    69  H          0.43170000       0.26200000       0.14820000
    70  H          0.56830000       0.73800000       0.85180000
    71  C          0.38152000       0.44682000       0.14719180
    72  C          0.61848000       0.55318000       0.85280820
    73  H          0.33680000       0.51220000       0.19590000
    74  H          0.66320000       0.48780000       0.80410000
    75  H          0.48100000       0.48420000       0.14270000
    76  H          0.51900000       0.51580000       0.85730000
    77  C          0.30262000       0.41732000       0.03614180
    78  C          0.69738000       0.58268000       0.96385820
    79  H          0.35340000       0.35950000       0.98540000
    80  H          0.64660000       0.64050000       0.01460000
    81  H          0.30060000       0.49900000       0.01050000
    82  H          0.69940000       0.50100000      -0.01050000
    83  C          0.15112000       0.35232000       0.03798190
    84  C          0.84888000       0.64768000       0.96201810
    85  H          0.10440000       0.32880000       0.96400000
    86  H          0.89560000       0.67120000       0.03600000
    87  H          0.09700000       0.41410000       0.08190000
    88  H          0.90300000       0.58590000       0.91810000
    89  C          0.14812000       0.23022000       0.08434170
    90  C          0.85188000       0.76978000       0.91565830
    91  H          0.19450000       0.16490000       0.03690000
    92  H          0.80550000       0.83510000       0.96310000
    93  H          0.04840000       0.19240000       0.08770000
    94  H          0.95160000       0.80760000       0.91230000
    95  C          0.27022000       0.98150820       0.19777150
    96  C          0.72978000       0.01849180       0.80222850
    97  H          0.26800000       0.92190000       0.24930000
    98  H          0.73200000       0.07810000       0.75070000
    99  C          0.42442000       0.00282000       0.16974190
   100  C          0.57558000      -0.00282000       0.83025810
   101  H          0.43190000       0.05700000       0.11520000
   102  H          0.56810000       0.94300000       0.88480000
   103  H          0.48590000       0.04920000       0.23470000
   104  H          0.51410000       0.95080000       0.76530000
   105  C          0.47442000       0.87278000       0.12612000
   106  C          0.52558000       0.12722000       0.87388000
   107  H          0.57270000       0.88830000       0.10540000
   108  H          0.42730000       0.11170000       0.89460000
   109  H          0.47530000       0.82220000       0.18320000
   110  H          0.52470000       0.17780000       0.81680000
   111  C          0.37922000       0.79498000       0.02956180
   112  C          0.62078000       0.20502000       0.97043820
   113  H          0.38640000       0.84090000       0.96940000
   114  H          0.61360000       0.15910000       0.03060000
   115  H          0.41100000       0.70930000       0.00620000
   116  H          0.58900000       0.29070000      -0.00620000
   117  C          0.22642000       0.77628000       0.05663190
   118  C          0.77358000       0.22372000       0.94336810
   119  H          0.21790000       0.72400000       0.11250000
   120  H          0.78210000       0.27600000       0.88750000
   121  H          0.16550000       0.72830000      -0.00820000
   122  H          0.83450000       0.27170000       0.00820000
   123  C          0.17532000       0.90718000       0.09743180
   124  C          0.82468000       0.09282000       0.90256820
   125  H          0.07560000       0.89300000       0.11530000
   126  H          0.92440000       0.10700000       0.88470000
   127  H          0.17970000       0.95850000       0.04080000
   128  H          0.82030000       0.04150000       0.95920000
   129  O          0.83780810       0.37363160       0.53396150
   130  O          0.16219190       0.62636840       0.46603850
   131  O          0.75648000       0.24377180       0.63975160
   132  O          0.24352000       0.75622820       0.36024840
   133  C          0.84007000       0.33172000       0.62192000
   134  C          0.15993000       0.66828000       0.37808000
   135  C          0.95617000       0.39652000       0.70732000
   136  C          0.04383000       0.60348000       0.29268000
   137  H          0.94730000       0.38010000       0.77730000
   138  H          0.05270000       0.61990000       0.22270000
   139  C          0.06763000       0.47322000       0.69362000
   140  C          0.93237000       0.52678000       0.30638000
   141  H          0.07490000       0.49450000       0.62520000
   142  H          0.92510000       0.50550000       0.37480000
   143  C          0.18533000       0.52983000       0.77942000
   144  C          0.81467000       0.47017000       0.22058000
   145  H          0.77260000       0.31430000       0.46630000
   146  H          0.22740000       0.68570000       0.53370000
   147  H          0.17030000       0.50130000       0.84530000
   148  H          0.82970000       0.49870000       0.15470000
   149  H          0.19840000       0.62440000       0.79430000
   150  H          0.80160000       0.37560000       0.20570000
   151  H          0.27750000       0.50940000       0.75730000
   152  H          0.72250000       0.49060000       0.24270000
