data_VOMFEM
_symmetry_space_group_name_H-M    'P1'
_symmetry_Int_Tables_number       1
loop_
_symmetry_equiv_pos_site_id
_symmetry_equiv_pos_as_xyz
1 x,y,z
_cell_length_a                   10.94905
_cell_length_b                   9.21084
_cell_length_c                   12.72946
_cell_angle_alpha                90.0
_cell_angle_beta                 96.0173
_cell_angle_gamma                90.0
loop_
_atom_site_label
_atom_site_type_symbol
_atom_site_fract_x
_atom_site_fract_y
_atom_site_fract_z
     1  C          0.67911850      -0.01189180       0.02131130
     2  C          0.82088150       0.48810820       0.47868870
     3  C          0.32088150       0.01189180       0.97868870
     4  C          0.17911850       0.51189180       0.52131130
     5  C          0.69929830       0.01832000       0.12830140
     6  C          0.80070170       0.51832000       0.37169860
     7  C          0.30070170       0.98168000       0.87169860
     8  C          0.19929830       0.48168000       0.62830140
     9  H          0.73660000       0.94910000       0.17420000
    10  H          0.76340000       0.44910000       0.32580000
    11  H          0.26340000       0.05090000       0.82580000
    12  H          0.23660000       0.55090000       0.67420000
    13  C          0.66456820       0.14982000       0.16737150
    14  C          0.83543180       0.64982000       0.33262850
    15  C          0.33543180       0.85018000       0.83262850
    16  C          0.16456820       0.35018000       0.66737150
    17  H          0.67900000       0.17030000       0.23910000
    18  H          0.82100000       0.67030000       0.26090000
    19  H          0.32100000       0.82970000       0.76090000
    20  H          0.17900000       0.32970000       0.73910000
    21  C          0.60795830       0.25076190       0.09833150
    22  C          0.89204170       0.75076190       0.40166850
    23  C          0.39204170       0.74923810       0.90166850
    24  C          0.10795830       0.24923810       0.59833150
    25  C          0.58746830       0.22382000      -0.00851860
    26  C          0.91253170       0.72382000       0.50851860
    27  C          0.41253170       0.77618000       0.00851860
    28  C          0.08746830       0.27618000       0.49148140
    29  H          0.55020000       0.29340000       0.94580000
    30  H          0.94980000       0.79340000       0.55420000
    31  H          0.44980000       0.70660000       0.05420000
    32  H          0.05020000       0.20660000       0.44580000
    33  C          0.62307840       0.09198190       0.95333140
    34  C          0.87692160       0.59198190       0.54666860
    35  C          0.37692160       0.90801810       0.04666860
    36  C          0.12307840       0.40801810       0.45333140
    37  H          0.60940000       0.07240000       0.88140000
    38  H          0.89060000       0.57240000       0.61860000
    39  H          0.39060000       0.92760000       0.11860000
    40  H          0.10940000       0.42760000       0.38140000
    41  C          0.71256840       0.84514810       0.97801140
    42  C          0.78743160       0.34514810       0.52198860
    43  C          0.28743160       0.15485190       0.02198860
    44  C          0.21256840       0.65485190       0.47801140
    45  O          0.75211860       0.75077860       0.05090100
    46  O          0.74788140       0.25077860       0.44909900
    47  O          0.24788140       0.24922140       0.94909900
    48  O          0.25211860       0.74922140       0.55090100
    49  H          0.76970000       0.67460000       0.02270000
    50  H          0.73030000       0.17460000       0.47730000
    51  H          0.23030000       0.32540000       0.97730000
    52  H          0.26970000       0.82540000       0.52270000
    53  O          0.70398860       0.81802850       0.88403100
    54  O          0.79601140       0.31802850       0.61596900
    55  O          0.29601140       0.18197150       0.11596900
    56  O          0.20398860       0.68197150       0.38403100
    57  Cl         0.56178500       0.41503500       0.14801500
    58  Cl         0.93821500       0.91503500       0.35198500
    59  Cl         0.43821500       0.58496500       0.85198500
    60  Cl         0.06178500       0.08496500       0.64801500
    61  C          0.82827830       0.43575190       0.89232140
    62  C          0.67172170       0.93575190       0.60767860
    63  C          0.17172170       0.56424810       0.10767860
    64  C          0.32827830       0.06424810       0.39232140
    65  C          0.88582820       0.30222000       0.87636150
    66  C          0.61417180       0.80222000       0.62363850
    67  C          0.11417180       0.69778000       0.12363850
    68  C          0.38582820       0.19778000       0.37636150
    69  H          0.88850000       0.26630000       0.80840000
    70  H          0.61150000       0.76630000       0.69160000
    71  H          0.11150000       0.73370000       0.19160000
    72  H          0.38850000       0.23370000       0.30840000
    73  C          0.93728820       0.22632000       0.96082150
    74  C          0.56271180       0.72632000       0.53917850
    75  C          0.06271180       0.77368000       0.03917850
    76  C          0.43728820       0.27368000       0.46082150
    77  H          0.97480000       0.13710000       0.95210000
    78  H          0.52520000       0.63710000       0.54790000
    79  H          0.02520000       0.86290000       0.04790000
    80  H          0.47480000       0.36290000       0.45210000
    81  C          0.93267840       0.28506190       0.06087140
    82  C          0.56732160       0.78506190       0.43912860
    83  C          0.06732160       0.71493810       0.93912860
    84  C          0.43267840       0.21493810       0.56087140
    85  C          0.87963830       0.41779190       0.07157140
    86  C          0.62036170       0.91779190       0.42842860
    87  C          0.12036170       0.58220810       0.92842860
    88  C          0.37963830       0.08220810       0.57157140
    89  H          0.87950000       0.45680000       0.13890000
    90  H          0.62050000       0.95680000       0.36110000
    91  H          0.12050000       0.54320000       0.86110000
    92  H          0.37950000       0.04320000       0.63890000
    93  N          0.82828860       0.49348160      -0.01037890
    94  N          0.67171140      -0.00651840       0.51037890
    95  N          0.17171140       0.50651840       0.01037890
    96  N          0.32828860       0.00651840       0.48962110
    97  N          0.98337840       0.20683180       0.15361130
    98  N          0.51662160       0.70683180       0.34638870
    99  N          0.01662160       0.79316820       0.84638870
   100  N          0.48337840       0.29316820       0.65361130
   101  N          0.77268810       0.51212000       0.81192140
   102  N          0.72731190       0.01212000       0.68807860
   103  N          0.22731190       0.48788000       0.18807860
   104  N          0.27268810      -0.01212000       0.31192140
   105  O          0.02971170       0.08793170       0.14206130
   106  O          0.47028830       0.58793170       0.35793870
   107  O          0.97028830       0.91206830       0.85793870
   108  O          0.52971170       0.41206830       0.64206130
   109  O          0.97569820       0.26080190       0.24036120
   110  O          0.52430180       0.76080190       0.25963880
   111  O          0.02430180       0.73919810       0.75963880
   112  O          0.47569820       0.23919810       0.74036120
   113  H          0.76380000       0.47620000       0.74941400
   114  H          0.73620000       0.97620000       0.75058600
   115  H          0.23620000       0.52380000       0.25058600
   116  H          0.26380000       0.02380000       0.24941400
   117  H          0.73780000       0.59620000       0.82571700
   118  H          0.76220000       0.09620000       0.67428300
   119  H          0.26220000       0.40380000       0.17428300
   120  H          0.23780000       0.90380000       0.32571700
