data_VOMTOI
_symmetry_space_group_name_H-M    'P1'
_symmetry_Int_Tables_number       1
loop_
_symmetry_equiv_pos_site_id
_symmetry_equiv_pos_as_xyz
1 x,y,z
_cell_length_a                   6.59625
_cell_length_b                   7.77395
_cell_length_c                   15.050116
_cell_angle_alpha                79.8847
_cell_angle_beta                 80.6268
_cell_angle_gamma                73.0757
loop_
_atom_site_label
_atom_site_type_symbol
_atom_site_fract_x
_atom_site_fract_y
_atom_site_fract_z
     1  I          0.35549500       0.24620500       0.07936300
     2  I          0.64450500       0.75379500       0.92063700
     3  H          0.34413000       0.12112000       0.07260000
     4  H          0.65587000       0.87888000       0.92740000
     5  S          0.63648000       0.40926180       0.29368100
     6  S          0.36352000       0.59073820       0.70631900
     7  N          0.28504000       0.66105000       0.22243000
     8  N          0.71496000       0.33895000       0.77757000
     9  N          0.46254000       0.63325000       0.15803000
    10  N          0.53746000       0.36675000       0.84197000
    11  N          0.80873000       0.48576000       0.12203000
    12  N          0.19127000       0.51424000       0.87797000
    13  H          0.80230000       0.54280000       0.06770000
    14  H          0.19770000       0.45720000       0.93230000
    15  H          0.92600000       0.40940000       0.13650000
    16  H          0.07400000       0.59060000       0.86350000
    17  C          0.63952000       0.51507000       0.18294000
    18  C          0.36048000       0.48493000       0.81706000
    19  C          0.92112000       0.78936000       0.26884000
    20  C          0.07888000       0.21064000       0.73116000
    21  O          0.12034000       0.60086000       0.38853000
    22  O          0.87966000       0.39914000       0.61147000
    23  H          0.21890000       0.60300000       0.34770000
    24  H          0.78110000       0.39700000       0.65230000
    25  C          0.72202000       0.89736000       0.24744000
    26  C          0.27798000       0.10264000       0.75256000
    27  H          0.70660000       0.95220000       0.18790000
    28  H          0.29340000       0.04780000       0.81210000
    29  C          0.93692000       0.70806000       0.35944000
    30  C          0.06308000       0.29194000       0.64056000
    31  C          0.10423000       0.75966000       0.19744000
    32  C          0.89577000       0.24034000       0.80256000
    33  C          0.92839000       0.18608000       0.39635000
    34  C          0.07161000       0.81392000       0.60365000
    35  H          0.83320000       0.10970000       0.41230000
    36  H          0.16680000       0.89030000       0.58770000
    37  H          0.88990000       0.27730000       0.43610000
    38  H          0.11010000       0.72270000       0.56390000
    39  H          0.07210000       0.11390000       0.40220000
    40  H          0.92790000       0.88610000       0.59780000
    41  C          0.91211000       0.27697000       0.29844000
    42  C          0.08789000       0.72303000       0.70156000
    43  H          0.95050000       0.18630000       0.25730000
    44  H          0.04950000       0.81370000       0.74270000
    45  H          0.00720000       0.35490000       0.28120000
    46  H         -0.00720000       0.64510000       0.71880000
    47  C          0.75891000       0.73298000       0.42344000
    48  C          0.24109000       0.26702000       0.57656000
    49  H          0.76990000       0.67610000       0.48290000
    50  H          0.23010000       0.32390000       0.51710000
    51  C          0.54651000       0.92498000       0.31275000
    52  C          0.45349000       0.07502000       0.68725000
    53  H          0.41580000       0.00030000       0.29730000
    54  H          0.58420000      -0.00030000       0.70270000
    55  C          0.56481000       0.84249000       0.39895000
    56  C          0.43519000       0.15751000       0.60105000
    57  H          0.44560000       0.85940000       0.44230000
    58  H          0.55440000       0.14060000       0.55770000
    59  C          0.07882000       0.83907000       0.09854000
    60  C          0.92118000       0.16093000       0.90146000
    61  H          0.16130000       0.92520000       0.07930000
    62  H          0.83870000       0.07480000       0.92070000
    63  H          0.93120000       0.89840000       0.09280000
    64  H          0.06880000       0.10160000       0.90720000
    65  H          0.12830000       0.74330000       0.06120000
    66  H          0.87170000       0.25670000       0.93880000
