data_VOQCIQ
_symmetry_space_group_name_H-M    'P1'
_symmetry_Int_Tables_number       1
loop_
_symmetry_equiv_pos_site_id
_symmetry_equiv_pos_as_xyz
1 x,y,z
_cell_length_a                   7.3391513
_cell_length_b                   8.1349315
_cell_length_c                   9.9727118
_cell_angle_alpha                67.93008
_cell_angle_beta                 77.09568
_cell_angle_gamma                87.42879
loop_
_atom_site_label
_atom_site_type_symbol
_atom_site_fract_x
_atom_site_fract_y
_atom_site_fract_z
     1  Cl         0.71603600       0.76485500       0.19084400
     2  Cl         0.28396400       0.23514500       0.80915600
     3  N          0.55798190       0.41418180       0.25421150
     4  N          0.44201810       0.58581820       0.74578850
     5  N          0.45933000       0.12193000       0.26262000
     6  N          0.54067000       0.87807000       0.73738000
     7  C          0.56913000       0.66862000       0.48025170
     8  C          0.43087000       0.33138000       0.51974830
     9  C          0.59662000       0.62302000       0.36150160
    10  C          0.40338000       0.37698000       0.63849840
    11  C          0.52772000       0.45042000       0.37405170
    12  C          0.47228000       0.54958000       0.62594830
    13  C          0.50003000       0.25453000       0.26568180
    14  C          0.49997000       0.74547000       0.73431820
    15  H          0.61340000       0.77950000       0.46870000
    16  H          0.38660000       0.22050000       0.53130000
    17  C          0.26293000       0.74103000       0.10795190
    18  C          0.73707000       0.25897000       0.89204810
    19  C          0.20623000       0.58973000       0.09742180
    20  C          0.79377000       0.41027000       0.90257820
    21  C          0.09613000       0.45603000       0.22163170
    22  C          0.90387000       0.54397000       0.77836830
    23  C          0.03253000       0.30053000       0.21122000
    24  C          0.96747000       0.69947000       0.78878000
    25  C          0.92527000       0.17343000       0.33193000
    26  C          0.07473000       0.82657000       0.66807000
    27  C          0.87627000       0.19363000       0.46872000
    28  C          0.12373000       0.80637000       0.53128000
    29  C          0.93648000       0.34232000       0.48628170
    30  C          0.06352000       0.65768000       0.51371830
    31  C          0.04802000       0.47792000       0.36078160
    32  C          0.95198000       0.52208000       0.63921840
    33  C          0.11182000       0.63592000       0.37024160
    34  C          0.88818000       0.36408000       0.62975840
    35  C          0.21573000       0.76413000       0.24364190
    36  C          0.78427000       0.23587000       0.75635810
    37  H          0.33320000       0.82920000       0.02460000
    38  H          0.66680000       0.17080000       0.97540000
    39  H          0.24060000       0.57460000       0.00730000
    40  H          0.75940000       0.42540000      -0.00730000
    41  H          0.06430000       0.28500000       0.12120000
    42  H          0.93570000       0.71500000       0.87880000
    43  H          0.88410000       0.07210000       0.32340000
    44  H          0.11590000       0.92790000       0.67660000
    45  H          0.80200000       0.10560000       0.54950000
    46  H          0.19800000       0.89440000       0.45050000
    47  H          0.25510000       0.86820000       0.24880000
    48  H          0.74490000       0.13180000       0.75120000
