data_VORCUB
_symmetry_space_group_name_H-M    'P1'
_symmetry_Int_Tables_number       1
loop_
_symmetry_equiv_pos_site_id
_symmetry_equiv_pos_as_xyz
1 x,y,z
_cell_length_a                   5.309513
_cell_length_b                   22.9416
_cell_length_c                   5.702314
_cell_angle_alpha                90.0
_cell_angle_beta                 107.9303
_cell_angle_gamma                90.0
loop_
_atom_site_label
_atom_site_type_symbol
_atom_site_fract_x
_atom_site_fract_y
_atom_site_fract_z
     1  N          0.20235000       0.49819110       0.28875000
     2  N          0.79765000      -0.00180890       0.71125000
     3  N          0.79765000       0.50180890       0.71125000
     4  N          0.20235000       0.00180890       0.28875000
     5  H          0.23870000       0.53100000       0.25270000
     6  H          0.76130000       0.03100000       0.74730000
     7  H          0.76130000       0.46900000       0.74730000
     8  H          0.23870000       0.96900000       0.25270000
     9  N          0.08935000       0.42347110       0.46475000
    10  N          0.91065000       0.92347110       0.53525000
    11  N          0.91065000       0.57652890       0.53525000
    12  N          0.08935000       0.07652890       0.46475000
    13  H          0.02470000       0.40290000       0.54920000
    14  H         -0.02470000       0.90290000       0.45080000
    15  H         -0.02470000       0.59710000       0.45080000
    16  H          0.02470000       0.09710000       0.54920000
    17  C          0.07035000       0.48133120       0.43985000
    18  C          0.92965000       0.98133120       0.56015000
    19  C          0.92965000       0.51866880       0.56015000
    20  C          0.07035000       0.01866880       0.43985000
    21  C          0.23787000       0.40320140       0.32556000
    22  C          0.76213000       0.90320140       0.67444000
    23  C          0.76213000       0.59679860       0.67444000
    24  C          0.23787000       0.09679860       0.32556000
    25  H          0.28230000       0.36450000       0.30910000
    26  H          0.71770000       0.86450000       0.69090000
    27  H          0.71770000       0.63550000       0.69090000
    28  H          0.28230000       0.13550000       0.30910000
    29  C          0.30786000       0.44979140       0.21596000
    30  C          0.69214000       0.94979140       0.78404000
    31  C          0.69214000       0.55020860       0.78404000
    32  C          0.30786000       0.05020860       0.21596000
    33  H          0.41000000       0.44910000       0.10960000
    34  H          0.59000000       0.94910000       0.89040000
    35  H          0.59000000       0.55090000       0.89040000
    36  H          0.41000000       0.05090000       0.10960000
    37  O          0.33155000       0.59463900       0.11835000
    38  O          0.66845000       0.09463900       0.88165000
    39  O          0.66845000       0.40536100       0.88165000
    40  O          0.33155000       0.90536100       0.11835000
    41  O          0.10266000       0.65277100       0.28736000
    42  O          0.89734000       0.15277100       0.71264000
    43  O          0.89734000       0.34722900       0.71264000
    44  O          0.10266000       0.84722900       0.28736000
    45  N          0.26251200       0.75000000       0.14481100
    46  N          0.73748800       0.25000000       0.85518900
    47  H          0.30340000       0.75000000       0.31010000
    48  H          0.69660000       0.25000000       0.68990000
    49  H          0.08480000       0.75000000       0.08200000
    50  H          0.91520000       0.25000000       0.91800000
    51  C          0.36588000       0.69548130       0.06738000
    52  C          0.63412000       0.19548130       0.93262000
    53  C          0.63412000       0.30451870       0.93262000
    54  C          0.36588000       0.80451870       0.06738000
    55  H          0.55760000       0.69520000       0.12940000
    56  H          0.44240000       0.19520000       0.87060000
    57  H          0.44240000       0.30480000       0.87060000
    58  H          0.55760000       0.80480000       0.12940000
    59  H          0.31310000       0.69340000       0.88890000
    60  H          0.68690000       0.19340000       0.11110000
    61  H          0.68690000       0.30660000       0.11110000
    62  H          0.31310000       0.80660000       0.88890000
    63  C          0.25597000       0.64376130       0.16836000
    64  C          0.74403000       0.14376130       0.83164000
    65  C          0.74403000       0.35623870       0.83164000
    66  C          0.25597000       0.85623870       0.16836000
    67  Cl         0.72694000       0.75000000       0.67753000
    68  Cl         0.27306000       0.25000000       0.32247000
