data_VORXIJ
_symmetry_space_group_name_H-M    'P1'
_symmetry_Int_Tables_number       1
loop_
_symmetry_equiv_pos_site_id
_symmetry_equiv_pos_as_xyz
1 x,y,z
_cell_length_a                   12.3614
_cell_length_b                   12.5334
_cell_length_c                   9.9872
_cell_angle_alpha                99.573
_cell_angle_beta                 112.762
_cell_angle_gamma                100.733
loop_
_atom_site_label
_atom_site_type_symbol
_atom_site_fract_x
_atom_site_fract_y
_atom_site_fract_z
     1  C          0.11939000       0.84408000       0.73410000
     2  C          0.88061000       0.15592000       0.26590000
     3  C          0.02239000       0.75508000       0.59910000
     4  C          0.97761000       0.24492000       0.40090000
     5  C          0.05510000       0.68409000       0.50910000
     6  C          0.94490000       0.31591000       0.49090000
     7  C          0.96490000       0.59969000       0.38810000
     8  C          0.03510000       0.40031000       0.61190000
     9  C          0.84090000       0.58589000       0.35310000
    10  C          0.15910000       0.41411000       0.64690000
    11  O          0.74913000       0.50446000       0.23479000
    12  O          0.25087000       0.49554000       0.76521000
    13  C          0.81151000       0.66049000       0.43810000
    14  C          0.18849000       0.33951000       0.56190000
    15  C          0.89890000       0.74689000       0.56510000
    16  C          0.10110000       0.25311000       0.43490000
    17  C          0.11249000       0.87639000       0.86710000
    18  C          0.88751000       0.12361000       0.13290000
    19  C          0.02499000       0.81069000       0.90710000
    20  C          0.97501000       0.18931000       0.09290000
    21  C          0.02019000       0.84549000       0.03910000
    22  C          0.97981000       0.15451000       0.96090000
    23  C          0.09810000       0.95289000       0.14910000
    24  C          0.90190000       0.04711000       0.85090000
    25  O          0.08797000      -0.01204000       0.26358000
    26  O          0.91203000       0.01204000       0.73642000
    27  C          0.18939000       0.01319000       0.10910000
    28  C          0.81061000      -0.01319000       0.89090000
    29  C          0.19689000       0.97779000       0.98010000
    30  C          0.80311000       0.02221000       0.01990000
    31  C          0.22410000       0.90289000       0.70910000
    32  C          0.77590000       0.09711000       0.29090000
    33  C          0.34310000       0.89088000       0.78310000
    34  C          0.65690000       0.10912000       0.21690000
    35  C          0.43810000       0.95610000       0.76610000
    36  C          0.56190000       0.04390000       0.23390000
    37  C          0.41510000       0.02710000       0.67420000
    38  C          0.58490000       0.97290000       0.32580000
    39  C          0.29910000       0.03710000       0.59610000
    40  C          0.70090000       0.96290000       0.40390000
    41  C          0.20510000       0.97310000       0.61610000
    42  C          0.79490000       0.02690000       0.38390000
    43  C          0.36310000       0.80510000       0.86510000
    44  C          0.63690000       0.19490000       0.13490000
    45  O          0.48108000       0.81737000       0.94710000
    46  O          0.51892000       0.18263000       0.05290000
    47  O          0.28428000       0.72677000       0.85579000
    48  O          0.71572000       0.27323000       0.14421000
    49  C          0.51510000       0.73410000       0.02720000
    50  C          0.48490000       0.26590000       0.97280000
    51  C          0.55420000       0.65620000       0.95220000
    52  C          0.44580000       0.34380000       0.04780000
    53  Br         0.00831000       0.50351000       0.26261000
    54  Br        -0.00831000       0.49649000       0.73739000
    55  Br         0.64409000       0.64717000       0.39111000
    56  Br         0.35591000       0.35283000       0.60889000
    57  Br         0.91339000       0.75711000       0.09401000
    58  Br         0.08661000       0.24289000       0.90599000
    59  Br         0.29721000       0.14841000       0.25021000
    60  Br         0.70279000       0.85159000       0.74979000
    61  H          0.16990000       0.68550000       0.53510000
    62  H          0.83010000       0.31450000       0.46490000
    63  H          0.80080000       0.45900000       0.21490000
    64  H          0.19920000       0.54100000       0.78510000
    65  H          0.85750000       0.80080000       0.64460000
    66  H          0.14250000       0.19920000       0.35540000
    67  H          0.97070000       0.71280000       0.82030000
    68  H          0.02930000       0.28720000       0.17970000
    69  H          0.25580000       0.02730000       0.96380000
    70  H          0.74420000       0.97270000       0.03620000
    71  H          0.54300000       0.94340000       0.82230000
    72  H          0.45700000       0.05660000       0.17770000
    73  H          0.48430000       0.05660000       0.64250000
    74  H          0.51570000       0.94340000       0.35750000
    75  H          0.28510000       0.11320000       0.53510000
    76  H          0.71490000       0.88680000       0.46490000
    77  H          0.11320000       0.97070000       0.57030000
    78  H          0.88680000       0.02930000       0.42970000
    79  H          0.44670000       0.69130000       0.04190000
    80  H          0.55330000       0.30870000       0.95810000
    81  H          0.57990000       0.76710000       0.12900000
    82  H          0.42010000       0.23290000       0.87100000
    83  H          0.57220000       0.60150000       0.00000000
    84  H          0.42780000       0.39850000      -0.00000000
    85  H          0.48970000       0.62070000       0.84860000
    86  H          0.51030000       0.37930000       0.15140000
    87  H          0.62360000       0.69470000       0.93880000
    88  H          0.37640000       0.30530000       0.06120000
    89  C          0.27310000       0.57320000       0.17220000
    90  C          0.72690000       0.42680000       0.82780000
    91  C          0.25720000       0.67420000       0.18330000
    92  C          0.74280000       0.32580000       0.81670000
    93  C          0.29720000       0.74410000       0.31140000
    94  C          0.70280000       0.25590000       0.68860000
    95  C          0.35420000       0.71330000       0.44220000
    96  C          0.64580000       0.28670000       0.55780000
    97  C          0.36710000       0.60520000       0.42830000
    98  C          0.63290000       0.39480000       0.57170000
    99  C          0.32720000       0.53710000       0.29530000
   100  C          0.67280000       0.46290000       0.70470000
   101  H          0.25580000       0.51360000       0.07030000
   102  H          0.74420000       0.48640000       0.92970000
   103  H          0.25580000       0.71280000       0.10540000
   104  H          0.74420000       0.28720000       0.89460000
   105  H          0.31250000       0.82810000       0.35540000
   106  H          0.68750000       0.17190000       0.64460000
   107  H          0.38800000       0.76420000       0.54360000
   108  H          0.61200000       0.23580000       0.45640000
   109  H          0.42770000       0.57030000       0.53510000
   110  H          0.57230000       0.42970000       0.46490000
   111  H          0.34170000       0.45700000       0.28510000
   112  H          0.65830000       0.54300000       0.71490000
