data_VOTMEW
_symmetry_space_group_name_H-M    'P1'
_symmetry_Int_Tables_number       1
loop_
_symmetry_equiv_pos_site_id
_symmetry_equiv_pos_as_xyz
1 x,y,z
_cell_length_a                   8.8371
_cell_length_b                   18.9612
_cell_length_c                   9.0672
_cell_angle_alpha                90.0
_cell_angle_beta                 92.091
_cell_angle_gamma                90.0
loop_
_atom_site_label
_atom_site_type_symbol
_atom_site_fract_x
_atom_site_fract_y
_atom_site_fract_z
     1  O          0.80907000       0.36049000       0.48403000
     2  O          0.19093000       0.86049000       0.01597000
     3  O          0.19093000       0.63951000       0.51597000
     4  O          0.80907000       0.13951000       0.98403000
     5  O          0.76097000       0.24879000       0.44293000
     6  O          0.23903000       0.74879000       0.05707000
     7  O          0.23903000       0.75121000       0.55707000
     8  O          0.76097000       0.25121000       0.94293000
     9  O          0.36427000       0.29349000       0.03183000
    10  O          0.63573000       0.79349000       0.46817000
    11  O          0.63573000       0.70651000       0.96817000
    12  O          0.36427000       0.20651000       0.53183000
    13  O          0.34457000       0.40799000       0.08503000
    14  O          0.65543000       0.90799000       0.41497000
    15  O          0.65543000       0.59201000       0.91497000
    16  O          0.34457000       0.09201000       0.58503000
    17  C          0.73406000       0.31098000       0.42043000
    18  C          0.26594000       0.81098000       0.07957000
    19  C          0.26594000       0.68902000       0.57957000
    20  C          0.73406000       0.18902000       0.92043000
    21  C          0.61396000       0.32988000       0.31203000
    22  C          0.38604000       0.82988000       0.18797000
    23  C          0.38604000       0.67012000       0.68797000
    24  C          0.61396000       0.17012000       0.81203000
    25  C          0.51896000       0.33998000       0.21913000
    26  C          0.48104000       0.83998000       0.28087000
    27  C          0.48104000       0.66002000       0.78087000
    28  C          0.51896000       0.16002000       0.71913000
    29  C          0.39966000       0.34578000       0.10094000
    30  C          0.60034000       0.84578000       0.39906000
    31  C          0.60034000       0.65422000       0.89906000
    32  C          0.39966000       0.15422000       0.60094000
    33  H          0.76460000       0.41980000       0.47330000
    34  H          0.23540000       0.91980000       0.02670000
    35  H          0.23540000       0.58020000       0.52670000
    36  H          0.76460000       0.08020000       0.97330000
    37  H          0.26260000       0.41480000      -0.01240000
    38  H          0.73740000       0.91480000       0.51240000
    39  H          0.73740000       0.58520000       0.01240000
    40  H          0.26260000       0.08520000       0.48760000
    41  O          0.15483000       0.42229000       0.88142000
    42  O          0.84517000       0.92229000       0.61858000
    43  O          0.84517000       0.57771000       0.11858000
    44  O          0.15483000       0.07771000       0.38142000
    45  O          0.15493000       0.53829000       0.92202000
    46  O          0.84507000       0.03829000       0.57798000
    47  O          0.84507000       0.46171000       0.07798000
    48  O          0.15493000       0.96171000       0.42202000
    49  O          0.72287000       0.48069000       0.45382000
    50  O          0.27713000       0.98069000       0.04618000
    51  O          0.27713000       0.51931000       0.54618000
    52  O          0.72287000       0.01931000       0.95382000
    53  O          0.74477000       0.59019000       0.53121000
    54  O          0.25523000       0.09019000       0.96879000
    55  O          0.25523000       0.40981000       0.46879000
    56  O          0.74477000       0.90981000       0.03121000
    57  C          0.10974000       0.48558000       0.85893000
    58  C          0.89026000       0.98558000       0.64107000
    59  C          0.89026000       0.51442000       0.14107000
    60  C          0.10974000       0.01442000       0.35893000
    61  C         -0.01064000       0.49358000       0.74413000
    62  C          0.01064000      -0.00642000       0.75587000
    63  C          0.01064000       0.50642000       0.25587000
    64  C         -0.01064000       0.00642000       0.24413000
    65  C          0.89316000       0.50608000       0.65173000
    66  C          0.10684000       0.00608000       0.84827000
    67  C          0.10684000       0.49392000       0.34827000
    68  C          0.89316000      -0.00608000       0.15173000
    69  C          0.77916000       0.52748000       0.53953000
    70  C          0.22084000       0.02748000       0.96047000
    71  C          0.22084000       0.47252000       0.46047000
    72  C          0.77916000       0.97252000       0.03953000
    73  C          0.94196000       0.73798000       0.76583000
    74  C          0.05804000       0.23798000       0.73417000
    75  C          0.05804000       0.26202000       0.23417000
    76  C          0.94196000       0.76202000       0.26583000
    77  N          0.01724000       0.68999000       0.84573000
    78  N          0.98276000       0.18999000       0.65427000
    79  N          0.98276000       0.31001000       0.15427000
    80  N          0.01724000       0.81001000       0.34573000
    81  N          0.84776000       0.71899000       0.65793000
    82  N          0.15224000       0.21899000       0.84207000
    83  N          0.15224000       0.28101000       0.34207000
    84  N          0.84776000       0.78101000       0.15793000
    85  N          0.96286000       0.80519000       0.79663000
    86  N          0.03714000       0.30519000       0.70337000
    87  N          0.03714000       0.19481000       0.20337000
    88  N          0.96286000       0.69481000       0.29663000
    89  H          0.00540000       0.64490000       0.82840000
    90  H         -0.00540000       0.14490000       0.67160000
    91  H         -0.00540000       0.35510000       0.17160000
    92  H          0.00540000       0.85510000       0.32840000
    93  H          0.07840000       0.70480000       0.92630000
    94  H          0.92160000       0.20480000       0.57370000
    95  H          0.92160000       0.29520000       0.07370000
    96  H          0.07840000       0.79520000       0.42630000
    97  H          0.78660000       0.75180000       0.61030000
    98  H          0.21340000       0.25180000       0.88970000
    99  H          0.21340000       0.24820000       0.38970000
   100  H          0.78660000       0.74820000       0.11030000
   101  H          0.83560000       0.67390000       0.63240000
   102  H          0.16440000       0.17390000       0.86760000
   103  H          0.16440000       0.32610000       0.36760000
   104  H          0.83560000       0.82610000       0.13240000
   105  H          0.91260000       0.83680000       0.74930000
   106  H          0.08740000       0.33680000       0.75070000
   107  H          0.08740000       0.16320000       0.25070000
   108  H          0.91260000       0.66320000       0.24930000
   109  H          0.03840000       0.81780000       0.86730000
   110  H          0.96160000       0.31780000       0.63270000
   111  H          0.96160000       0.18220000       0.13270000
   112  H          0.03840000       0.68220000       0.36730000
   113  C          0.45256000       0.59408000       0.22833000
   114  C          0.54744000       0.09408000       0.27167000
   115  C          0.54744000       0.40592000       0.77167000
   116  C          0.45256000       0.90592000       0.72833000
   117  N          0.34546000       0.61339000       0.13163000
   118  N          0.65454000       0.11339000       0.36837000
   119  N          0.65454000       0.38661000       0.86837000
   120  N          0.34546000       0.88661000       0.63163000
   121  N          0.48616000       0.52699000       0.24433000
   122  N          0.51384000       0.02699000       0.25567000
   123  N          0.51384000       0.47301000       0.75567000
   124  N          0.48616000       0.97301000       0.74433000
   125  N          0.52396000       0.64209000       0.31043000
   126  N          0.47604000       0.14209000       0.18957000
   127  N          0.47604000       0.35791000       0.68957000
   128  N          0.52396000       0.85791000       0.81043000
   129  H          0.30360000       0.57680000       0.07030000
   130  H          0.69640000       0.07680000       0.42970000
   131  H          0.69640000       0.42320000       0.92970000
   132  H          0.30360000       0.92320000       0.57030000
   133  H          0.30960000       0.65890000       0.12240000
   134  H          0.69040000       0.15890000       0.37760000
   135  H          0.69040000       0.34110000       0.87760000
   136  H          0.30960000       0.84110000       0.62240000
   137  H          0.43160000       0.49380000       0.18730000
   138  H          0.56840000      -0.00620000       0.31270000
   139  H          0.56840000       0.50620000       0.81270000
   140  H          0.43160000       0.00620000       0.68730000
   141  H          0.55660000       0.51380000       0.31330000
   142  H          0.44340000       0.01380000       0.18670000
   143  H          0.44340000       0.48620000       0.68670000
   144  H          0.55660000       0.98620000       0.81330000
   145  H          0.59860000       0.62580000       0.37930000
   146  H          0.40140000       0.12580000       0.12070000
   147  H          0.40140000       0.37420000       0.62070000
   148  H          0.59860000       0.87420000       0.87930000
   149  H          0.50860000       0.68690000       0.30440000
   150  H          0.49140000       0.18690000       0.19560000
   151  H          0.49140000       0.31310000       0.69560000
   152  H          0.50860000       0.81310000       0.80440000
