data_VOTNEX
_symmetry_space_group_name_H-M    'P1'
_symmetry_Int_Tables_number       1
loop_
_symmetry_equiv_pos_site_id
_symmetry_equiv_pos_as_xyz
1 x,y,z
_cell_length_a                   11.7252
_cell_length_b                   13.0902
_cell_length_c                   13.4623
_cell_angle_alpha                62.021
_cell_angle_beta                 81.162
_cell_angle_gamma                76.351
loop_
_atom_site_label
_atom_site_type_symbol
_atom_site_fract_x
_atom_site_fract_y
_atom_site_fract_z
     1  C          0.90586000       0.21174000       0.68283000
     2  C          0.09414000       0.78826000       0.31717000
     3  C          0.01174000       0.16244000       0.73414000
     4  C          0.98826000       0.83756000       0.26586000
     5  C          0.02344000       0.16064000       0.83444000
     6  C          0.97656000       0.83936000       0.16556000
     7  N          0.93267000       0.20443000       0.88523000
     8  N          0.06733000       0.79557000       0.11477000
     9  C          0.82656000       0.24764000       0.84114000
    10  C          0.17344000       0.75236000       0.15886000
    11  C          0.81156000       0.25024000       0.74184000
    12  C          0.18844000       0.74976000       0.25816000
    13  C          0.95326000       0.21904000       0.98464000
    14  C          0.04674000       0.78096000       0.01536000
    15  C         -0.00754000       0.33404000       0.94184000
    16  C          0.00754000       0.66596000       0.05816000
    17  C          0.11124000       0.33874000       0.92784000
    18  C          0.88876000       0.66126000       0.07216000
    19  C          0.14784000       0.44594000       0.87914000
    20  C          0.85216000       0.55406000       0.12086000
    21  C          0.06594000       0.55044000       0.84244000
    22  C          0.93406000       0.44956000       0.15756000
    23  C          0.94906000       0.54554000       0.85884000
    24  C          0.05094000       0.45446000       0.14116000
    25  C          0.91136000       0.43794000       0.90914000
    26  C          0.08864000       0.56206000       0.09086000
    27  C          0.10595000       0.66704000       0.78304000
    28  C          0.89405000       0.33296000       0.21696000
    29  N          0.10953000       0.70943000       0.65783000
    30  N          0.89047000       0.29057000       0.34217000
    31  C          0.02724000       0.79604000       0.59554000
    32  C          0.97276000       0.20396000       0.40446000
    33  C          0.02304000       0.82814000       0.48484000
    34  C          0.97696000       0.17186000       0.51516000
    35  C          0.89436000       0.23174000       0.56634000
    36  C          0.10564000       0.76826000       0.43366000
    37  C          0.80696000       0.31754000       0.50034000
    38  C          0.19304000       0.68246000       0.49966000
    39  C          0.19314000       0.65445000       0.61124000
    40  C          0.80686000       0.34555000       0.38876000
    41  H          0.07730000       0.12920000       0.69930000
    42  H          0.92270000       0.87080000       0.30070000
    43  H          0.09780000       0.12740000       0.86880000
    44  H          0.90220000       0.87260000       0.13120000
    45  H          0.76150000       0.27680000       0.87950000
    46  H          0.23850000       0.72320000       0.12050000
    47  H          0.73500000       0.27880000       0.71180000
    48  H          0.26500000       0.72120000       0.28820000
    49  H          0.01310000       0.15570000       0.02860000
    50  H          0.98690000       0.84430000       0.97140000
    51  H          0.88190000       0.21890000       0.03030000
    52  H          0.11810000       0.78110000       0.96970000
    53  H          0.16850000       0.26700000       0.95220000
    54  H          0.83150000       0.73300000       0.04780000
    55  H          0.23010000       0.44800000       0.87060000
    56  H          0.76990000       0.55200000       0.12940000
    57  H          0.89190000       0.61730000       0.83540000
    58  H          0.10810000       0.38270000       0.16460000
    59  H          0.82890000       0.43610000       0.92100000
    60  H          0.17110000       0.56390000       0.07900000
    61  H          0.18290000       0.65780000       0.80560000
    62  H          0.81710000       0.34220000       0.19440000
    63  H          0.05200000       0.72340000       0.80240000
    64  H          0.94800000       0.27660000       0.19760000
    65  H          0.96940000       0.83670000       0.62990000
    66  H          0.03060000       0.16330000       0.37010000
    67  H          0.96340000       0.89190000       0.44110000
    68  H          0.03660000       0.10810000       0.55890000
    69  H          0.74580000       0.35750000       0.53280000
    70  H          0.25420000       0.64250000       0.46720000
    71  H          0.25420000       0.59420000       0.65640000
    72  H          0.74580000       0.40580000       0.34360000
    73  C          0.89935000       0.55004000       0.54264000
    74  C          0.10065000       0.44996000       0.45736000
    75  C          0.99156000       0.47964000       0.60974000
    76  C          0.00844000       0.52036000       0.39026000
    77  C          0.90806000       0.57234000       0.43014000
    78  C          0.09194000       0.42766000       0.56986000
    79  O          0.82227000       0.64033000       0.35463000
    80  O          0.17773000       0.35967000       0.64537000
    81  C          0.71825000       0.69886000       0.39125000
    82  C          0.28175000       0.30114000       0.60875000
    83  C          0.64185000       0.77157000       0.29406000
    84  C          0.35815000       0.22843000       0.70594000
    85  O          0.69397000       0.86604000       0.21454000
    86  O          0.30603000       0.13396000       0.78546000
    87  C          0.62104000       0.93747000       0.11887000
    88  C          0.37896000       0.06253000       0.88113000
    89  C          0.67733000       0.03226000       0.03656000
    90  C          0.32267000       0.96774000       0.96344000
    91  O          0.78126000       0.99224000       0.98616000
    92  O          0.21874000       0.00776000       0.01384000
    93  H          0.82980000       0.58360000       0.57280000
    94  H          0.17020000       0.41640000       0.42720000
    95  H          0.98620000       0.46600000       0.68670000
    96  H          0.01380000       0.53400000       0.31330000
    97  H          0.73890000       0.74850000       0.41750000
    98  H          0.26110000       0.25150000       0.58250000
    99  H          0.67760000       0.64170000       0.45100000
   100  H          0.32240000       0.35830000       0.54900000
   101  H          0.63230000       0.72410000       0.26010000
   102  H          0.36770000       0.27590000       0.73990000
   103  H          0.56640000       0.80120000       0.31960000
   104  H          0.43360000       0.19880000       0.68040000
   105  H          0.61010000       0.88960000       0.08590000
   106  H          0.38990000       0.11040000       0.91410000
   107  H          0.54620000       0.96940000       0.14320000
   108  H          0.45380000       0.03060000       0.85680000
   109  H          0.62360000       0.08490000       0.97860000
   110  H          0.37640000       0.91510000       0.02140000
   111  H          0.69660000       0.07350000       0.07280000
   112  H          0.30340000       0.92650000       0.92720000
   113  H          0.81989000       0.02912000       0.91105000
   114  H          0.18011000       0.97088000       0.08895000
   115  N          0.33494000       0.69426000       0.93445000
   116  N          0.66506000       0.30574000       0.06555000
   117  C          0.43233000       0.67885000       0.93225000
   118  C          0.56767000       0.32115000       0.06775000
   119  C          0.55984000       0.65347000       0.93037000
   120  C          0.44016000       0.34653000       0.06963000
   121  H          0.59940000       0.69330000       0.95490000
   122  H          0.40060000       0.30670000       0.04510000
   123  H          0.57650000       0.67850000       0.85110000
   124  H          0.42350000       0.32150000       0.14890000
   125  H          0.58690000       0.56990000       0.97060000
   126  H          0.41310000       0.43010000       0.02940000
   127  N          0.17545000       0.92925000       0.68906000
   128  N          0.82455000       0.07075000       0.31094000
   129  C          0.26876000       0.92036000       0.65816000
   130  C          0.73124000       0.07964000       0.34184000
   131  C          0.38997000       0.90341000       0.61659000
   132  C          0.61003000       0.09659000       0.38341000
   133  H          0.39740000       0.98450000       0.58390000
   134  H          0.60260000       0.01550000       0.41610000
   135  H          0.40990000       0.87590000       0.56020000
   136  H          0.59010000       0.12410000       0.43980000
   137  H          0.44190000       0.85700000       0.67720000
   138  H          0.55810000       0.14300000       0.32280000
   139  P          0.26771000       0.05741000       0.26741000
   140  P          0.73229000       0.94259000       0.73259000
   141  F          0.20894000       0.01125000       0.38794000
   142  F          0.79106000       0.98875000       0.61206000
   143  F          0.32014000       0.10445000       0.14154000
   144  F          0.67986000       0.89555000       0.85846000
   145  F          0.38784000       0.05045000       0.30175000
   146  F          0.61216000       0.94955000       0.69825000
   147  F          0.30385000       0.93296000       0.27766000
   148  F          0.69615000       0.06704000       0.72234000
   149  F          0.22675000       0.18524000       0.24816000
   150  F          0.77325000       0.81476000       0.75184000
   151  F          0.14484000       0.06436000       0.22775000
   152  F          0.85516000       0.93564000       0.77225000
   153  P          0.52569000       0.50612000       0.70622000
   154  P          0.47431000       0.49388000       0.29378000
   155  F          0.43296000       0.54496000       0.78385000
   156  F          0.56704000       0.45504000       0.21615000
   157  F          0.61416000       0.46944000       0.62464000
   158  F          0.38584000       0.53056000       0.37536000
   159  F          0.42266000       0.47526000       0.67297000
   160  F          0.57734000       0.52474000       0.32703000
   161  F          0.49514000       0.62965000       0.61076000
   162  F          0.50486000       0.37035000       0.38924000
   163  F          0.55136000       0.37425000       0.79894000
   164  F          0.44864000       0.62575000       0.20106000
   165  F          0.62665000       0.52181000       0.74991000
   166  F          0.37335000       0.47819000       0.25009000
