data_VOXSOU
_symmetry_space_group_name_H-M    'P1'
_symmetry_Int_Tables_number       1
loop_
_symmetry_equiv_pos_site_id
_symmetry_equiv_pos_as_xyz
1 x,y,z
_cell_length_a                   5.3141713
_cell_length_b                   10.87073
_cell_length_c                   12.16393
_cell_angle_alpha                69.5882
_cell_angle_beta                 78.7702
_cell_angle_gamma                85.8822
loop_
_atom_site_label
_atom_site_type_symbol
_atom_site_fract_x
_atom_site_fract_y
_atom_site_fract_z
     1  C          0.46976000       0.51304190       0.73897170
     2  C          0.53024000       0.48695810       0.26102830
     3  C          0.68066000       0.61004180       0.67051170
     4  C          0.31934000       0.38995820       0.32948830
     5  C          0.77705000       0.68062000       0.72718190
     6  C          0.22295000       0.31938000       0.27281810
     7  H          0.71051600       0.66773100       0.80694800
     8  H          0.28948400       0.33226900       0.19305200
     9  C          0.97056000       0.77002000       0.66752190
    10  C          0.02944000       0.22998000       0.33247810
    11  H          0.03141600       0.81689200       0.70788000
    12  H          0.96858400       0.18310800       0.29212000
    13  C          0.07754000       0.79220170       0.54917160
    14  C          0.92246000       0.20779830       0.45082840
    15  C          0.97434000       0.72163000       0.49282000
    16  C          0.02566000       0.27837000       0.50718000
    17  H          0.03799700       0.73492100       0.41273100
    18  H          0.96200300       0.26507900       0.58726900
    19  C          0.77974000       0.63223000       0.55312000
    20  C          0.22026000       0.36777000       0.44688000
    21  H          0.71518300       0.58630100       0.51299300
    22  H          0.28481700       0.41369900       0.48700700
    23  C          0.28523000       0.88794170       0.49294160
    24  C          0.71477000       0.11205830       0.50705840
    25  C          0.34735000       0.88493000       0.27902000
    26  C          0.65265000       0.11507000       0.72098000
    27  H          0.40056500       0.79548300       0.29182500
    28  H          0.59943500       0.20451700       0.70817500
    29  H          0.43774900       0.94047500       0.20357500
    30  H          0.56225100       0.05952500       0.79642500
    31  H          0.16615400       0.89235100       0.27910800
    32  H          0.83384600       0.10764900       0.72089200
    33  C          0.40233000       0.95956170       0.54363150
    34  C          0.59767000       0.04043830       0.45636850
    35  C          0.40104000       0.98154190       0.65414160
    36  C          0.59896000       0.01845810       0.34585840
    37  H          0.25320000       0.40240000       0.72340000
    38  H          0.74680000       0.59760000       0.27660000
    39  N          0.40383000       0.92485160       0.37364140
    40  N          0.59617000       0.07514840       0.62635860
    41  O          0.38056000       0.45759180       0.67623150
    42  O          0.61944000       0.54240820       0.32376850
    43  O          0.39487000       0.48869180       0.84474140
    44  O          0.60513000       0.51130820       0.15525860
    45  O          0.27243000       0.93717160       0.75469120
    46  O          0.72757000       0.06282840       0.24530880
    47  H          0.74680000       0.59840000       0.27740000
    48  H          0.25320000       0.40160000       0.72260000
    49  C          0.15555000       0.65783000       0.00332000
    50  C          0.84445000       0.34217000      -0.00332000
    51  H          0.00867500       0.60233300       0.02360200
    52  H         -0.00867500       0.39766700       0.97639800
    53  H          0.30022800       0.60549800       0.02929200
    54  H          0.69977200       0.39450200       0.97070800
    55  H          0.19341100       0.70106500       0.91838000
    56  H          0.80658900       0.29893500       0.08162000
    57  C          0.81826000       0.84693000       0.00983000
    58  C          0.18174000       0.15307000      -0.00983000
    59  H          0.74747300       0.91448500       0.04072600
    60  H          0.25252700       0.08551500       0.95927400
    61  H          0.69145500       0.78035600       0.02907600
    62  H          0.30854500       0.21964400       0.97092400
    63  H          0.86869700       0.88402000       0.92470500
    64  H          0.13130300       0.11598000       0.07529500
    65  O         -0.00536000       0.70588180       0.20403140
    66  O          0.00536000       0.29411820       0.79596860
    67  S          0.08958110       0.77627600       0.07399500
    68  S          0.91041890       0.22372400       0.92600500
