data_VUBCEA01
_symmetry_space_group_name_H-M    'P1'
_symmetry_Int_Tables_number       1
loop_
_symmetry_equiv_pos_site_id
_symmetry_equiv_pos_as_xyz
1 x,y,z
_cell_length_a                   11.08777
_cell_length_b                   5.43814
_cell_length_c                   24.663019
_cell_angle_alpha                90.0
_cell_angle_beta                 101.0587
_cell_angle_gamma                90.0
loop_
_atom_site_label
_atom_site_type_symbol
_atom_site_fract_x
_atom_site_fract_y
_atom_site_fract_z
     1  Br         0.14282300       0.81263700       0.07231918
     2  Br         0.35717700       0.31263700       0.42768082
     3  Br         0.85717700       0.18736300       0.92768082
     4  Br         0.64282300       0.68736300       0.57231918
     5  O          0.62552000       0.78824000       0.02919110
     6  O          0.87448000       0.28824000       0.47080890
     7  O          0.37448000       0.21176000       0.97080890
     8  O          0.12552000       0.71176000       0.52919110
     9  N          0.58302000       0.55015000       0.09963120
    10  N          0.91698000       0.05015000       0.40036880
    11  N          0.41698000       0.44985000       0.90036880
    12  N          0.08302000       0.94985000       0.59963120
    13  N          0.43263000       0.79126000       0.04643140
    14  N          0.06737000       0.29126000       0.45356860
    15  N          0.56737000       0.20874000       0.95356860
    16  N          0.93263000       0.70874000       0.54643140
    17  C          0.71333000       0.50276000       0.11703150
    18  C          0.78667000       0.00276000       0.38296850
    19  C          0.28667000       0.49724000       0.88296850
    20  C          0.21333000      -0.00276000       0.61703150
    21  C          0.78303000       0.65906000       0.15582160
    22  C          0.71697000       0.15906000       0.34417840
    23  C          0.21697000       0.34094000       0.84417840
    24  C          0.28303000       0.84094000       0.65582160
    25  C          0.72803000       0.84927000       0.18482160
    26  C          0.77197000       0.34927000       0.31517840
    27  C          0.27197000       0.15073000       0.81517840
    28  C          0.22803000       0.65073000       0.68482160
    29  H          0.77740000      -0.00970000       0.19540000
    30  H          0.72260000       0.49030000       0.30460000
    31  H          0.22260000       0.00970000       0.80460000
    32  H          0.27740000       0.50970000       0.69540000
    33  C          0.61643000       0.85106000       0.19851160
    34  C          0.88357000       0.35106000       0.30148840
    35  C          0.38357000       0.14894000       0.80148840
    36  C          0.11643000       0.64894000       0.69851160
    37  H          0.59740000      -0.00970000       0.21860000
    38  H          0.90260000       0.49030000       0.28140000
    39  H          0.40260000       0.00970000       0.78140000
    40  H          0.09740000       0.50970000       0.71860000
    41  C          0.52033000       0.66206000       0.18600160
    42  C          0.97967000       0.16206000       0.31399840
    43  C          0.47967000       0.33794000       0.81399840
    44  C          0.02033000       0.83794000       0.68600160
    45  C          0.50693000       0.50946000       0.13975160
    46  C         -0.00693000       0.00946000       0.36024840
    47  C          0.49307000       0.49054000       0.86024840
    48  C          0.00693000      -0.00946000       0.63975160
    49  C          0.91033000       0.62497000       0.16650160
    50  C          0.58967000       0.12497000       0.33349840
    51  C          0.08967000       0.37503000       0.83349840
    52  C          0.41033000       0.87503000       0.66650160
    53  H          0.96130000       0.73480000       0.19070000
    54  H          0.53870000       0.23480000       0.30930000
    55  H          0.03870000       0.26520000       0.80930000
    56  H          0.46130000       0.76520000       0.69070000
    57  C          0.96333000       0.43397000       0.14241170
    58  C          0.53667000       0.93397000       0.35758830
    59  C          0.03667000       0.56603000       0.85758830
    60  C          0.46333000       0.06603000       0.64241170
    61  H          0.05010000       0.41450000       0.15010000
    62  H          0.44990000       0.91450000       0.34990000
    63  H          0.94990000       0.58550000       0.84990000
    64  H          0.55010000       0.08550000       0.65010000
    65  C          0.89153000       0.27137000       0.10740170
    66  C          0.60847000       0.77137000       0.39259830
    67  C          0.10847000       0.72863000       0.89259830
    68  C          0.39153000       0.22863000       0.60740170
    69  H          0.92790000       0.13610000       0.09220000
    70  H          0.57210000       0.63610000       0.40780000
    71  H          0.07210000       0.86390000       0.90780000
    72  H          0.42790000       0.36390000       0.59220000
    73  C          0.76553000       0.30746000       0.09457160
    74  C          0.73447000       0.80746000       0.40542840
    75  C          0.23447000       0.69254000       0.90542840
    76  C          0.26553000       0.19254000       0.59457160
    77  H          0.71510000       0.19720000       0.07020000
    78  H          0.78490000       0.69720000       0.42980000
    79  H          0.28490000       0.80280000       0.92980000
    80  H          0.21510000       0.30280000       0.57020000
    81  C          0.43943000       0.62657000       0.22243170
    82  C          0.06057000       0.12657000       0.27756830
    83  C          0.56057000       0.37343000       0.77756830
    84  C          0.93943000       0.87343000       0.72243170
    85  H          0.44470000       0.73130000       0.25360000
    86  H          0.05530000       0.23130000       0.24640000
    87  H          0.55530000       0.26870000       0.74640000
    88  H          0.94470000       0.76870000       0.75360000
    89  C          0.35173000       0.44197000       0.21401180
    90  C          0.14827000       0.94197000       0.28598820
    91  C          0.64827000       0.55803000       0.78598820
    92  C          0.85173000       0.05803000       0.71401180
    93  H          0.29880000       0.41840000       0.23970000
    94  H          0.20120000       0.91840000       0.26030000
    95  H          0.70120000       0.58160000       0.76030000
    96  H          0.79880000       0.08160000       0.73970000
    97  C          0.34163000       0.29127000       0.16783170
    98  C          0.15837000       0.79127000       0.33216830
    99  C          0.65837000       0.70873000       0.83216830
   100  C          0.84163000       0.20873000       0.66783170
   101  H          0.28150000       0.16460000       0.16190000
   102  H          0.21850000       0.66460000       0.33810000
   103  H          0.71850000       0.83540000       0.83810000
   104  H          0.78150000       0.33540000       0.66190000
   105  C          0.41833000       0.32496000       0.13073160
   106  C          0.08167000       0.82496000       0.36926840
   107  C          0.58167000       0.67504000       0.86926840
   108  C          0.91833000       0.17504000       0.63073160
   109  H          0.41090000       0.22250000       0.09910000
   110  H          0.08910000       0.72250000       0.40090000
   111  H          0.58910000       0.77750000       0.90090000
   112  H          0.91090000       0.27750000       0.59910000
   113  C          0.54993000       0.71566000       0.05688150
   114  C          0.95007000       0.21566000       0.44311850
   115  C          0.45007000       0.28434000       0.94311850
   116  C          0.04993000       0.78434000       0.55688150
   117  H          0.37830000       0.75260000       0.06661400
   118  H          0.12170000       0.25260000       0.43338600
   119  H          0.62170000       0.24740000       0.93338600
   120  H          0.87830000       0.74740000       0.56661400
   121  H          0.41630000       0.89250000       0.01801000
   122  H          0.08370000       0.39250000       0.48199000
   123  H          0.58370000       0.10750000       0.98199000
   124  H          0.91630000       0.60750000       0.51801000
   125  N          0.85103000       0.69276000       0.00490150
   126  N          0.64897000       0.19276000       0.49509850
   127  N          0.14897000       0.30724000      -0.00490150
   128  N          0.35103000       0.80724000       0.50490150
   129  H          0.79620000       0.73860000       0.02321200
   130  H          0.70380000       0.23860000       0.47678800
   131  H          0.20380000       0.26140000       0.97678800
   132  H          0.29620000       0.76140000       0.52321200
   133  H          0.91881800       0.69260000       0.02911200
   134  H          0.58118200       0.19260000       0.47088800
   135  H          0.08118200       0.30740000       0.97088800
   136  H          0.41881800       0.80740000       0.52911200
   137  H          0.85730000       0.81240000       0.98238900
   138  H          0.64270000       0.31240000       0.51761100
   139  H          0.14270000       0.18760000       0.01761100
   140  H          0.35730000       0.68760000       0.48238900
   141  H          0.85430000       0.56030000       0.98578900
   142  H          0.64570000       0.06030000       0.51421100
   143  H          0.14570000       0.43970000       0.01421100
   144  H          0.35430000       0.93970000       0.48578900
