data_VUFXUP
_symmetry_space_group_name_H-M    'P1'
_symmetry_Int_Tables_number       1
loop_
_symmetry_equiv_pos_site_id
_symmetry_equiv_pos_as_xyz
1 x,y,z
_cell_length_a                   6.1731
_cell_length_b                   9.6072
_cell_length_c                   13.0672
_cell_angle_alpha                74.5001
_cell_angle_beta                 76.862
_cell_angle_gamma                72.032
loop_
_atom_site_label
_atom_site_type_symbol
_atom_site_fract_x
_atom_site_fract_y
_atom_site_fract_z
     1  C          0.68831900       0.37511200       0.80779000
     2  C          0.31168100       0.62488800       0.19221000
     3  C          0.63762300       0.50181300       0.85041000
     4  C          0.36237700       0.49818700       0.14959000
     5  C          0.44652000       0.61911300       0.82519000
     6  C          0.55348000       0.38088700       0.17481000
     7  C          0.31041900       0.60491300       0.75731000
     8  C          0.68958100       0.39508700       0.24269000
     9  C          0.37321700       0.47911200       0.71598000
    10  C          0.62678300       0.52088800       0.28402000
    11  N          0.55751500       0.36779000       0.74197000
    12  N          0.44248500       0.63221000       0.25803000
    13  C          0.61212000       0.22891300       0.70239000
    14  C          0.38788000       0.77108700       0.29761000
    15  C          0.84291800       0.11251200       0.69819000
    16  C          0.15708200       0.88748800       0.30181000
    17  C          0.48932100       0.10051300       0.75301000
    18  C          0.51067900       0.89948700       0.24699000
    19  C          0.59151900       0.22041200       0.58948000
    20  C          0.40848100       0.77958800       0.41052000
    21  C          0.67592000       0.05801100       0.65568000
    22  C          0.32408000       0.94198900       0.34432000
    23  I          0.76251000       0.85579000       0.60111000
    24  I          0.23749000       0.14421000       0.39889000
    25  H          0.81820000       0.29250000       0.82570000
    26  H          0.18180000       0.70750000       0.17430000
    27  H          0.73320000       0.50780000       0.89680000
    28  H          0.26680000       0.49220000       0.10320000
    29  H          0.40830000       0.70800000       0.85310000
    30  H          0.59170000       0.29200000       0.14690000
    31  H          0.17460000       0.68290000       0.74040000
    32  H          0.82540000       0.31710000       0.25960000
    33  H          0.28390000       0.47080000       0.66760000
    34  H          0.71610000       0.52920000       0.33240000
    35  H          0.88820000       0.05630000       0.76600000
    36  H          0.11180000       0.94370000       0.23400000
    37  H          0.96730000       0.14150000       0.64620000
    38  H          0.03270000       0.85850000       0.35380000
    39  H          0.33120000       0.12240000       0.74410000
    40  H          0.66880000       0.87760000       0.25590000
    41  H          0.51990000       0.04310000       0.82310000
    42  H          0.48010000       0.95690000       0.17690000
    43  H          0.70110000       0.25570000       0.53120000
    44  H          0.29890000       0.74430000       0.46880000
    45  H          0.43820000       0.24890000       0.57250000
    46  H          0.56180000       0.75110000       0.42750000
    47  I          0.00000000       0.00000000       0.00000000
    48  I          0.83119000       0.75059000      -0.00621000
    49  I          0.16881000       0.24941000       0.00621000
    50  I          0.00000000       0.50000000       0.50000000
