data_VUGMIT
_symmetry_space_group_name_H-M    'P1'
_symmetry_Int_Tables_number       1
loop_
_symmetry_equiv_pos_site_id
_symmetry_equiv_pos_as_xyz
1 x,y,z
_cell_length_a                   7.6961
_cell_length_b                   21.9887
_cell_length_c                   13.4322
_cell_angle_alpha                90.0
_cell_angle_beta                 102.661
_cell_angle_gamma                90.0
loop_
_atom_site_label
_atom_site_type_symbol
_atom_site_fract_x
_atom_site_fract_y
_atom_site_fract_z
     1  C          0.07003000       0.28231000       0.47722000
     2  C          0.92997000       0.78231000       0.02278000
     3  C          0.92997000       0.71769000       0.52278000
     4  C          0.07003000       0.21769000       0.97722000
     5  C          0.89947000       0.29041000       0.49402000
     6  C          0.10053000       0.79041000       0.00598000
     7  C          0.10053000       0.70959000       0.50598000
     8  C          0.89947000       0.20959000      -0.00598000
     9  C          0.75327000       0.26941000       0.42432000
    10  C          0.24673000       0.76941000       0.07568000
    11  C          0.24673000       0.73059000       0.57568000
    12  C          0.75327000       0.23059000       0.92432000
    13  C          0.77507000       0.23951000       0.33682000
    14  C          0.22493000       0.73951000       0.16318000
    15  C          0.22493000       0.76049000       0.66318000
    16  C          0.77507000       0.26049000       0.83682000
    17  C          0.94566000       0.23071000       0.32182000
    18  C          0.05434000       0.73071000       0.17818000
    19  C          0.05434000       0.76929000       0.67818000
    20  C          0.94566000       0.26929000       0.82182000
    21  C          0.09193000       0.25251000       0.39022000
    22  C          0.90807000       0.75251000       0.10978000
    23  C          0.90807000       0.74749000       0.60978000
    24  C          0.09193000       0.24749000       0.89022000
    25  N          0.63036000       0.21732000       0.26732000
    26  N          0.36964000       0.71732000       0.23268000
    27  N          0.36964000       0.78268000       0.73268000
    28  N          0.63036000       0.28268000       0.76732000
    29  S          0.25231000       0.30970000       0.56640000
    30  S          0.74769000       0.80970000       0.93360000
    31  S          0.74769000       0.69030000       0.43360000
    32  S          0.25231000       0.19030000       0.06640000
    33  O          0.21642000       0.30401000       0.66641000
    34  O          0.78358000       0.80401000       0.83359000
    35  O          0.78358000       0.69599000       0.33359000
    36  O          0.21642000       0.19599000       0.16641000
    37  O          0.41092000       0.28311000       0.54751000
    38  O          0.58908000       0.78311000       0.95249000
    39  O          0.58908000       0.71689000       0.45249000
    40  O          0.41092000       0.21689000       0.04751000
    41  N          0.25573000       0.38371000       0.55022000
    42  N          0.74427000       0.88371000       0.94978000
    43  N          0.74427000       0.61629000       0.44978000
    44  N          0.25573000       0.11629000       0.05022000
    45  C          0.28333000       0.41331000       0.46422000
    46  C          0.71667000       0.91331000       0.03578000
    47  C          0.71667000       0.58669000       0.53578000
    48  C          0.28333000       0.08669000       0.96422000
    49  N          0.32553000       0.38021000       0.39052000
    50  N          0.67447000       0.88021000       0.10948000
    51  N          0.67447000       0.61979000       0.60948000
    52  N          0.32553000       0.11979000       0.89052000
    53  C          0.35473000       0.41111000       0.30932000
    54  C          0.64527000       0.91111000       0.19068000
    55  C          0.64527000       0.58889000       0.69068000
    56  C          0.35473000       0.08889000       0.80932000
    57  C          0.33924000       0.47401000       0.30432000
    58  C          0.66076000       0.97401000       0.19568000
    59  C          0.66076000       0.52599000       0.69568000
    60  C          0.33924000       0.02599000       0.80432000
    61  C          0.29403000       0.50431000       0.38442000
    62  C          0.70597000       0.00431000       0.11558000
    63  C          0.70597000       0.49569000       0.61558000
    64  C          0.29403000      -0.00431000       0.88442000
    65  N          0.26533000       0.47421000       0.46612000
    66  N          0.73467000       0.97421000       0.03388000
    67  N          0.73467000       0.52579000       0.53388000
    68  N          0.26533000       0.02579000       0.96612000
    69  C          0.40594000       0.37461000       0.22642000
    70  C          0.59406000       0.87461000       0.27358000
    71  C          0.59406000       0.62539000       0.77358000
    72  C          0.40594000       0.12539000       0.72642000
    73  C          0.27194000       0.57251000       0.38443000
    74  C          0.72806000       0.07251000       0.11557000
    75  C          0.72806000       0.42749000       0.61557000
    76  C          0.27194000       0.92749000       0.88443000
    77  H          0.88270000       0.31190000       0.55700000
    78  H          0.11730000       0.81190000       0.94300000
    79  H          0.11730000       0.68810000       0.44300000
    80  H          0.88270000       0.18810000       0.05700000
    81  H          0.63110000       0.27570000       0.43670000
    82  H          0.36890000       0.77570000       0.06330000
    83  H          0.36890000       0.72430000       0.56330000
    84  H          0.63110000       0.22430000       0.93670000
    85  H          0.96280000       0.20810000       0.26000000
    86  H          0.03720000       0.70810000       0.24000000
    87  H          0.03720000       0.79190000       0.74000000
    88  H          0.96280000       0.29190000       0.76000000
    89  H          0.21390000       0.24680000       0.37710000
    90  H          0.78610000       0.74680000       0.12290000
    91  H          0.78610000       0.75320000       0.62290000
    92  H          0.21390000       0.25320000       0.87710000
    93  H          0.62850000       0.21320000       0.20530000
    94  H          0.37150000       0.71320000       0.29470000
    95  H          0.37150000       0.78680000       0.79470000
    96  H          0.62850000       0.28680000       0.70530000
    97  H          0.52550000       0.23220000       0.27730000
    98  H          0.47450000       0.73220000       0.22270000
    99  H          0.47450000       0.76780000       0.72270000
   100  H          0.52550000       0.26780000       0.77730000
   101  H          0.21940000       0.40410000       0.59820000
   102  H          0.78060000       0.90410000       0.90180000
   103  H          0.78060000       0.59590000       0.40180000
   104  H          0.21940000       0.09590000       0.09820000
   105  H          0.36050000       0.49680000       0.24360000
   106  H          0.63950000      -0.00320000       0.25640000
   107  H          0.63950000       0.50320000       0.75640000
   108  H          0.36050000       0.00320000       0.74360000
   109  H          0.42210000       0.40050000       0.16790000
   110  H          0.57790000       0.90050000       0.33210000
   111  H          0.57790000       0.59950000       0.83210000
   112  H          0.42210000       0.09950000       0.66790000
   113  H          0.32170000       0.34070000       0.20040000
   114  H          0.67830000       0.84070000       0.29960000
   115  H          0.67830000       0.65930000       0.79960000
   116  H          0.32170000       0.15930000       0.70040000
   117  H          0.52350000       0.35740000       0.26170000
   118  H          0.47650000       0.85740000       0.23830000
   119  H          0.47650000       0.64260000       0.73830000
   120  H          0.52350000       0.14260000       0.76170000
   121  H          0.31020000       0.58880000       0.32300000
   122  H          0.68980000       0.08880000       0.17700000
   123  H          0.68980000       0.41120000       0.67700000
   124  H          0.31020000       0.91120000       0.82300000
   125  H          0.34770000       0.59050000       0.44740000
   126  H          0.65230000       0.09050000       0.05260000
   127  H          0.65230000       0.40950000       0.55260000
   128  H          0.34770000       0.90950000       0.94740000
   129  H          0.14450000       0.58350000       0.38050000
   130  H          0.85550000       0.08350000       0.11950000
   131  H          0.85550000       0.41650000       0.61950000
   132  H          0.14450000       0.91650000       0.88050000
   133  C          0.14653000       0.55051000       0.78662000
   134  C          0.85347000       0.05051000       0.71338000
   135  C          0.85347000       0.44949000       0.21338000
   136  C          0.14653000       0.94949000       0.28662000
   137  C          0.16373000       0.52711000       0.88452000
   138  C          0.83627000       0.02711000       0.61548000
   139  C          0.83627000       0.47289000       0.11548000
   140  C          0.16373000       0.97289000       0.38452000
   141  C          0.13094000       0.56221000       0.96412000
   142  C          0.86906000       0.06221000       0.53588000
   143  C          0.86906000       0.43779000       0.03588000
   144  C          0.13094000       0.93779000       0.46412000
   145  C          0.08184000       0.62201000       0.94563000
   146  C          0.91816000       0.12201000       0.55437000
   147  C          0.91816000       0.37799000       0.05437000
   148  C          0.08184000       0.87799000       0.44563000
   149  C          0.06664000       0.64671000       0.84983000
   150  C          0.93336000       0.14671000       0.65017000
   151  C          0.93336000       0.35329000       0.15017000
   152  C          0.06664000       0.85329000       0.34983000
   153  C          0.09963000       0.61151000       0.77122000
   154  C          0.90037000       0.11151000       0.72878000
   155  C          0.90037000       0.38849000       0.22878000
   156  C          0.09963000       0.88849000       0.27122000
   157  C          0.17283000       0.51271000       0.69952000
   158  C          0.82717000       0.01271000       0.80048000
   159  C          0.82717000       0.48729000       0.30048000
   160  C          0.17283000       0.98729000       0.19952000
   161  O          0.19383000       0.54371000       0.62022000
   162  O          0.80617000       0.04371000       0.87978000
   163  O          0.80617000       0.45629000       0.37978000
   164  O          0.19383000       0.95629000       0.12022000
   165  O          0.17173000       0.45731000       0.70121000
   166  O          0.82827000       0.95731000       0.79879000
   167  O          0.82827000       0.54269000       0.29879000
   168  O          0.17173000       0.04269000       0.20121000
   169  O          0.20753000       0.46621000       0.90831000
   170  O          0.79247000       0.96621000       0.59169000
   171  O          0.79247000       0.53379000       0.09169000
   172  O          0.20753000       0.03379000       0.40831000
   173  C          0.37414000       0.44751000       0.90272000
   174  C          0.62586000       0.94751000       0.59728000
   175  C          0.62586000       0.55249000       0.09728000
   176  C          0.37414000       0.05249000       0.40272000
   177  O          0.48373000       0.48121000       0.88402000
   178  O          0.51627000       0.98121000       0.61598000
   179  O          0.51627000       0.51879000       0.11598000
   180  O          0.48373000       0.01879000       0.38402000
   181  C          0.39575000       0.38101000       0.92293000
   182  C          0.60425000       0.88101000       0.57707000
   183  C          0.60425000       0.61899000       0.07707000
   184  C          0.39575000       0.11899000       0.42293000
   185  H          0.14260000       0.54430000       0.03380000
   186  H          0.85740000       0.04430000       0.46620000
   187  H          0.85740000       0.45570000       0.96620000
   188  H          0.14260000       0.95570000       0.53380000
   189  H          0.05690000       0.64780000       0.00220000
   190  H          0.94310000       0.14780000       0.49780000
   191  H          0.94310000       0.35220000      -0.00220000
   192  H          0.05690000       0.85220000       0.50220000
   193  H          0.03160000       0.69030000       0.83730000
   194  H          0.96840000       0.19030000       0.66270000
   195  H          0.96840000       0.30970000       0.16270000
   196  H          0.03160000       0.80970000       0.33730000
   197  H          0.08970000       0.62990000       0.70210000
   198  H          0.91030000       0.12990000       0.79790000
   199  H          0.91030000       0.37010000       0.29790000
   200  H          0.08970000       0.87010000       0.20210000
   201  H          0.21150000       0.51420000       0.56530000
   202  H          0.78850000       0.01420000       0.93470000
   203  H          0.78850000       0.48580000       0.43470000
   204  H          0.21150000       0.98580000       0.06530000
   205  H          0.52340000       0.36870000       0.93210000
   206  H          0.47660000       0.86870000       0.56790000
   207  H          0.47660000       0.63130000       0.06790000
   208  H          0.52340000       0.13130000       0.43210000
   209  H          0.32250000       0.35850000       0.86360000
   210  H          0.67750000       0.85850000       0.63640000
   211  H          0.67750000       0.64150000       0.13640000
   212  H          0.32250000       0.14150000       0.36360000
   213  H          0.35280000       0.37090000       0.98600000
   214  H          0.64720000       0.87090000       0.51400000
   215  H          0.64720000       0.62910000       0.01400000
   216  H          0.35280000       0.12910000       0.48600000
