data_VUHFIO
_symmetry_space_group_name_H-M    'P1'
_symmetry_Int_Tables_number       1
loop_
_symmetry_equiv_pos_site_id
_symmetry_equiv_pos_as_xyz
1 x,y,z
_cell_length_a                   7.214114
_cell_length_b                   7.492315
_cell_length_c                   15.4563
_cell_angle_alpha                85.143
_cell_angle_beta                 86.433
_cell_angle_gamma                70.653
loop_
_atom_site_label
_atom_site_type_symbol
_atom_site_fract_x
_atom_site_fract_y
_atom_site_fract_z
     1  S          0.14065500       0.21941400       0.34324200
     2  S          0.85934500       0.78058600       0.65675800
     3  O          0.20291150       0.67494140       0.39190700
     4  O          0.79708850       0.32505860       0.60809300
     5  O          0.94372850       0.21497140       0.34012700
     6  O          0.05627150       0.78502860       0.65987300
     7  O          0.28746160       0.09552140       0.28911600
     8  O          0.71253840       0.90447860       0.71088400
     9  N          0.14295180       0.43899160       0.32513800
    10  N          0.85704820       0.56100840       0.67486200
    11  C          0.21408180       0.20163180       0.45059800
    12  C          0.78591820       0.79836820       0.54940200
    13  C          0.24222180       0.36914180       0.46880800
    14  C          0.75777820       0.63085820       0.53119200
    15  C          0.30785190       0.06562000       0.59124900
    16  C          0.69214810       0.93438000       0.40875100
    17  H          0.32990000       0.96530000       0.63330000
    18  H          0.67010000       0.03470000       0.36670000
    19  C          0.34022000       0.23112000       0.61041900
    20  C          0.65978000       0.76888000       0.38958100
    21  H          0.38500000       0.23840000       0.66470000
    22  H          0.61500000       0.76160000       0.33530000
    23  C          0.19659190       0.51446180       0.39406800
    24  C          0.80340810       0.48553820       0.60593200
    25  C          0.24328190       0.04718180       0.51049800
    26  C          0.75671810       0.95281820       0.48950200
    27  H          0.22100000       0.93730000       0.49740000
    28  H          0.77900000       0.06270000       0.50260000
    29  C          0.30669190       0.38602190       0.54972900
    30  C          0.69330810       0.61397810       0.45027100
    31  H          0.32680000       0.49690000       0.56290000
    32  H          0.67320000       0.50310000       0.43710000
    33  H          0.11830000       0.50230000       0.27011600
    34  H          0.88170000       0.49770000       0.72988400
    35  O          0.05749170       0.61752860       0.17163600
    36  O          0.94250830       0.38247140       0.82836400
    37  O          0.71642140       0.18529130       0.13330600
    38  O          0.28357860       0.81470870       0.86669400
    39  N          0.96896180       0.90244830       0.22766700
    40  N          0.03103820       0.09755170       0.77233300
    41  C          0.96863190       0.79249820       0.16474800
    42  C          0.03136810       0.20750180       0.83525200
    43  C          0.89662000       0.75544820       0.01591800
    44  C          0.10338000       0.24455180       0.98408200
    45  H          0.97390000       0.62930000       0.02600000
    46  H          0.02610000       0.37070000       0.97400000
    47  C          0.86507180       0.87762830       0.08292800
    48  C          0.13492820       0.12237170       0.91707200
    49  C          0.81692000       0.81568000       0.93500100
    50  C          0.18308000       0.18432000       0.06499900
    51  H          0.84060000       0.73180000       0.89140000
    52  H          0.15940000       0.26820000       0.10860000
    53  C          0.70082000       0.00412000       0.92039200
    54  C          0.29918000      -0.00412000       0.07960800
    55  H          0.64590000       0.04660000       0.86650000
    56  H          0.35410000       0.95340000       0.13350000
    57  C          0.66597190       0.12918190       0.98531100
    58  C          0.33402810       0.87081810       0.01468900
    59  H          0.58800000       0.25490000       0.97460000
    60  H          0.41200000       0.74510000       0.02540000
    61  C          0.74715180       0.06793180       0.06685800
    62  C          0.25284820       0.93206820       0.93314200
    63  C          0.59962000       0.38156190       0.11780900
    64  C          0.40038000       0.61843810       0.88219100
    65  H          0.46780000       0.39220000       0.10250000
    66  H          0.53220000       0.60780000       0.89750000
    67  H          0.65820000       0.44070000       0.07050000
    68  H          0.34180000       0.55930000       0.92950000
    69  C          0.59322000       0.47662000       0.20073110
    70  C          0.40678000       0.52338000       0.79926890
    71  H          0.54440000       0.41060000       0.24790000
    72  H          0.45560000       0.58940000       0.75210000
    73  H          0.50800000       0.60570000       0.19440000
    74  H          0.49200000       0.39430000       0.80560000
    75  H          0.72320000       0.47380000       0.21270000
    76  H          0.27680000       0.52620000       0.78730000
    77  H          0.91230000       0.02230000       0.22021300
    78  H          0.08770000       0.97770000       0.77978700
    79  H          0.03930000       0.84670000       0.27591400
    80  H          0.96070000       0.15330000       0.72408600
