data_VUJZOQ
_symmetry_space_group_name_H-M    'P1'
_symmetry_Int_Tables_number       1
loop_
_symmetry_equiv_pos_site_id
_symmetry_equiv_pos_as_xyz
1 x,y,z
_cell_length_a                   7.40735
_cell_length_b                   26.795617
_cell_length_c                   12.30087
_cell_angle_alpha                90.0
_cell_angle_beta                 106.8301
_cell_angle_gamma                90.0
loop_
_atom_site_label
_atom_site_type_symbol
_atom_site_fract_x
_atom_site_fract_y
_atom_site_fract_z
     1  C          0.65224000       0.74482110       0.32512000
     2  C          0.34776000       0.24482110       0.67488000
     3  N          0.47543000       0.75428100       0.26872000
     4  N          0.52457000       0.25428100       0.73128000
     5  H          0.44900000       0.77110000       0.20450000
     6  H          0.55100000       0.27110000       0.79550000
     7  H          0.38370000       0.74380000       0.29510000
     8  H          0.61630000       0.24380000       0.70490000
     9  N          0.69303000       0.71906100       0.42192000
    10  N          0.30697000       0.21906100       0.57808000
    11  H          0.60170000       0.70830000       0.44840000
    12  H          0.39830000       0.20830000       0.55160000
    13  H          0.81140000       0.71280000       0.45930000
    14  H          0.18860000       0.21280000       0.54070000
    15  N          0.79043000       0.76044100       0.28592000
    16  N          0.20957000       0.26044100       0.71408000
    17  H          0.76460000       0.77730000       0.22180000
    18  H          0.23540000       0.27730000       0.77820000
    19  H          0.90830000       0.75400000       0.32390000
    20  H          0.09170000       0.25400000       0.67610000
    21  C          0.66334000       0.23437110       0.16372000
    22  C          0.33666000       0.73437110       0.83628000
    23  N          0.84083000       0.22456110       0.21892000
    24  N          0.15917000       0.72456110       0.78108000
    25  H          0.92910000       0.22800000       0.18470000
    26  H          0.07090000       0.72800000       0.81530000
    27  H          0.87080000       0.21460000       0.29010000
    28  H          0.12920000       0.71460000       0.70990000
    29  N          0.61783000       0.24928100       0.05782000
    30  N          0.38217000       0.74928100       0.94218000
    31  H          0.49950000       0.25600000       0.02140000
    32  H          0.50050000       0.75600000       0.97860000
    33  H          0.70570000       0.25260000       0.02310000
    34  H          0.29430000       0.75260000       0.97690000
    35  N          0.53253000       0.22932100       0.21622000
    36  N          0.46747000       0.72932100       0.78378000
    37  H          0.41400000       0.23600000       0.18010000
    38  H          0.58600000       0.73600000       0.81990000
    39  H          0.56380000       0.21930000       0.28740000
    40  H          0.43620000       0.71930000       0.71260000
    41  C          0.11674000       0.33959100       0.06462000
    42  C          0.88326000       0.83959100       0.93538000
    43  C         -0.01824000       0.35854110       0.11112000
    44  C          0.01824000       0.85854110       0.88888000
    45  H          0.87300000       0.33950000       0.10960000
    46  H          0.12700000       0.83950000       0.89040000
    47  C          0.00685000       0.40532120       0.15973000
    48  C         -0.00685000       0.90532120       0.84027000
    49  H          0.91450000       0.41880000       0.19120000
    50  H          0.08550000       0.91880000       0.80880000
    51  C          0.16755000       0.43266110       0.16252000
    52  C          0.83245000       0.93266110       0.83748000
    53  C          0.29795000       0.41401120       0.11283000
    54  C          0.70205000       0.91401120       0.88717000
    55  H          0.40500000       0.43340000       0.11250000
    56  H          0.59500000       0.93340000       0.88750000
    57  C          0.27374000       0.36695110       0.06313000
    58  C          0.72626000       0.86695110       0.93687000
    59  H          0.36340000       0.35390000       0.02890000
    60  H          0.63660000       0.85390000       0.97110000
    61  C          0.19984000       0.63245100       0.42782000
    62  C          0.80016000       0.13245100       0.57218000
    63  C          0.03626000       0.60667130       0.41863000
    64  C          0.96374000       0.10667130       0.58137000
    65  H          0.94030000       0.62110000       0.44580000
    66  H          0.05970000       0.12110000       0.55420000
    67  C          0.01076000       0.55992130       0.37013000
    68  C         -0.01076000       0.05992130       0.62987000
    69  H          0.89750000       0.54200000       0.36380000
    70  H          0.10250000       0.04200000       0.63620000
    71  C          0.15115000       0.53905110       0.33023000
    72  C          0.84885000       0.03905110       0.66977000
    73  C          0.31655000       0.56438140       0.34193000
    74  C          0.68345000       0.06438140       0.65807000
    75  H          0.41400000       0.54970000       0.31670000
    76  H          0.58600000       0.04970000       0.68330000
    77  C          0.34125000       0.61117140       0.39023000
    78  C          0.65875000       0.11117140       0.60977000
    79  H          0.45540000       0.62890000       0.39780000
    80  H          0.54460000       0.12890000       0.60220000
    81  N          0.20994000       0.47990100       0.21582000
    82  N          0.79006000       0.97990100       0.78418000
    83  N          0.10585000       0.49116100       0.27622000
    84  N          0.89415000       0.99116100       0.72378000
    85  S          0.09054800       0.27746200       0.01192500
    86  S          0.90945200       0.77746200       0.98807500
    87  O          0.89698000       0.27162700       0.94329850
    88  O          0.10302000       0.77162700       0.05670150
    89  O          0.13432000       0.24609700       0.11343160
    90  O          0.86568000       0.74609700       0.88656840
    91  O          0.22842000       0.27139700       0.94981850
    92  O          0.77158000       0.77139700       0.05018150
    93  S          0.22320900       0.69473200       0.47735500
    94  S          0.77679100       0.19473200       0.52264500
    95  O          0.17983000       0.72572700       0.37613160
    96  O          0.82017000       0.22572700       0.62386840
    97  O          0.08872000       0.70111800       0.54155150
    98  O          0.91128000       0.20111800       0.45844850
    99  O          0.41722000       0.70060800       0.54687150
   100  O          0.58278000       0.20060800       0.45312850
   101  C          0.53986000       0.95446170       0.43684000
   102  C          0.46014000       0.45446170       0.56316000
   103  H          0.64250000       0.93320000       0.43650000
   104  H          0.35750000       0.43320000       0.56350000
   105  C          0.40507000       0.93855190       0.48765000
   106  C          0.59493000       0.43855190       0.51235000
   107  C          0.25336000       0.97114160       0.48254000
   108  C          0.74664000       0.47114160       0.51746000
   109  H          0.15690000       0.96100000       0.51460000
   110  H          0.84310000       0.46100000       0.48540000
   111  C          0.24244000       0.01673140       0.43253000
   112  C          0.75756000       0.51673140       0.56747000
   113  H          0.13870000       0.03780000       0.43130000
   114  H          0.86130000       0.53780000       0.56870000
   115  C          0.37884000       0.03382120       0.38263000
   116  C          0.62116000       0.53382120       0.61737000
   117  C          0.52544000       0.00057140       0.38723000
   118  C          0.47456000       0.50057140       0.61277000
   119  C          0.37724000       0.08159120       0.32993000
   120  C          0.62276000       0.58159120       0.67007000
   121  C          0.51734000       0.09244140       0.28433000
   122  C          0.48266000       0.59244140       0.71567000
   123  H          0.51610000       0.12380000       0.24810000
   124  H          0.48390000       0.62380000       0.75190000
   125  C          0.66804000       0.05840150       0.28863000
   126  C          0.33196000       0.55840150       0.71137000
   127  C          0.22334000       0.11858130       0.32713000
   128  C          0.77666000       0.61858130       0.67287000
   129  H          0.24270000       0.14870000       0.28660000
   130  H          0.75730000       0.64870000       0.71340000
   131  H          0.22620000       0.12730000       0.40490000
   132  H          0.77380000       0.62730000       0.59510000
   133  H          0.10070000       0.10380000       0.28780000
   134  H          0.89930000       0.60380000       0.71220000
   135  C          0.29621000       0.87794000       0.62927000
   136  C          0.70379000       0.37794000       0.37073000
   137  H          0.36680000       0.85530000       0.69060000
   138  H          0.63320000       0.35530000       0.30940000
   139  H          0.24960000       0.90750000       0.66120000
   140  H          0.75040000       0.40750000       0.33880000
   141  C          0.16251500       0.85484000       0.54908000
   142  C          0.83748500       0.35484000       0.45092000
   143  H          0.08450000       0.87960000       0.49790000
   144  H          0.91550000       0.37960000       0.50210000
   145  H          0.08340000       0.83510000       0.58450000
   146  H          0.91660000       0.33510000       0.41550000
   147  H          0.22120000       0.83260000       0.50560000
   148  H          0.77880000       0.33260000       0.49440000
   149  C          0.54411000       0.84362000       0.49105000
   150  C          0.45589000       0.34362000       0.50895000
   151  H          0.48960000       0.80970000       0.48930000
   152  H          0.51040000       0.30970000       0.51070000
   153  H          0.58180000       0.85080000       0.42170000
   154  H          0.41820000       0.35080000       0.57830000
   155  C          0.66651200       0.85564000       0.58536000
   156  C          0.33348800       0.35564000       0.41464000
   157  H          0.61350000       0.84960000       0.64850000
   158  H          0.38650000       0.34960000       0.35150000
   159  H          0.69830000       0.89110000       0.58340000
   160  H          0.30170000       0.39110000       0.41660000
   161  H          0.78050000       0.83550000       0.59570000
   162  H          0.21950000       0.33550000       0.40430000
   163  N          0.41549000       0.89252000       0.53567000
   164  N          0.58451000       0.39252000       0.46433000
   165  O          0.66793000       0.01358100       0.34052000
   166  O          0.33207000       0.51358100       0.65948000
   167  O          0.79903000       0.06590120       0.25013000
   168  O          0.20097000       0.56590120       0.74987000
   169  C          0.65434000       0.50258120       0.96533000
   170  C          0.34566000       0.00258120       0.03467000
   171  H          0.54730000       0.50140000      -0.00690000
   172  H          0.45270000       0.00140000       0.00690000
   173  C          0.75965000       0.54656120       0.97523000
   174  C          0.24035000       0.04656120       0.02477000
   175  C          0.91845000       0.54544130       0.93383000
   176  C          0.08155000       0.04544130       0.06617000
   177  H         -0.00480000       0.57440000       0.94100000
   178  H          0.00480000       0.07440000       0.05900000
   179  C          0.96414000       0.50391120       0.88403000
   180  C          0.03586000       0.00391120       0.11597000
   181  H          0.07140000       0.50490000       0.85640000
   182  H          0.92860000       0.00490000       0.14360000
   183  C          0.85874000       0.45967120       0.87182000
   184  C          0.14126000       0.95967120       0.12818000
   185  C          0.70494000       0.46109110       0.91562000
   186  C          0.29506000       0.96109110       0.08438000
   187  C          0.89624000       0.41511120       0.81852000
   188  C          0.10376000       0.91511120       0.18148000
   189  C          0.78044000       0.37528120       0.81303000
   190  C          0.21956000       0.87528120       0.18697000
   191  H          0.80200000       0.34600000       0.77520000
   192  H          0.19800000       0.84600000       0.22480000
   193  C          0.62774000       0.37580110       0.86192000
   194  C          0.37226000       0.87580110       0.13808000
   195  C          0.06245000       0.41194140       0.77303000
   196  C          0.93755000       0.91194140       0.22697000
   197  H          0.17880000       0.41620000       0.83520000
   198  H          0.82120000       0.91620000       0.16480000
   199  H          0.05370000       0.43820000       0.71630000
   200  H          0.94630000       0.93820000       0.28370000
   201  H          0.06380000       0.37930000       0.73750000
   202  H          0.93620000       0.87930000       0.26250000
   203  C          0.58011100       0.58433000       0.11158000
   204  C          0.41988900       0.08433000       0.88842000
   205  H          0.56740000       0.54980000       0.13720000
   206  H          0.43260000       0.04980000       0.86280000
   207  H          0.61640000       0.60780000       0.17620000
   208  H          0.38360000       0.10780000       0.82380000
   209  C          0.44701500       0.59843000       0.03196000
   210  C          0.55298500       0.09843000       0.96804000
   211  H          0.48330000       0.62860000      -0.00150000
   212  H          0.51670000       0.12860000       0.00150000
   213  H          0.33850000       0.60570000       0.05970000
   214  H          0.66150000       0.10570000       0.94030000
   215  H          0.41320000       0.57210000       0.97420000
   216  H          0.58680000       0.07210000       0.02580000
   217  C          0.80236000       0.63692140       0.01783000
   218  C          0.19764000       0.13692140       0.98217000
   219  H          0.70910000       0.66380000       0.01390000
   220  H          0.29090000       0.16380000       0.98610000
   221  H          0.84420000       0.63910000       0.94840000
   222  H          0.15580000       0.13910000       0.05160000
   223  C          0.97058000       0.64553170       0.12054000
   224  C          0.02942000       0.14553170       0.87946000
   225  H          0.92900000       0.64580000       0.18920000
   226  H          0.07100000       0.14580000       0.81080000
   227  H          0.02900000       0.67760000       0.11280000
   228  H          0.97100000       0.17760000       0.88720000
   229  H          0.06260000       0.61870000       0.12590000
   230  H          0.93740000       0.11870000       0.87410000
   231  N          0.71126000       0.58929120       0.01874000
   232  N          0.28874000       0.08929120       0.98126000
   233  O          0.59292000       0.41944700       0.91031170
   234  O          0.40708000       0.91944700       0.08968830
   235  O          0.52233000       0.34135800       0.86513180
   236  O          0.47767000       0.84135800       0.13486820
