data_VULLIZ
_symmetry_space_group_name_H-M    'P1'
_symmetry_Int_Tables_number       1
loop_
_symmetry_equiv_pos_site_id
_symmetry_equiv_pos_as_xyz
1 x,y,z
_cell_length_a                   13.781916
_cell_length_b                   7.04588
_cell_length_c                   11.622212
_cell_angle_alpha                90.0
_cell_angle_beta                 97.9384
_cell_angle_gamma                90.0
loop_
_atom_site_label
_atom_site_type_symbol
_atom_site_fract_x
_atom_site_fract_y
_atom_site_fract_z
     1  C          0.52744000       0.17927000       0.47344000
     2  C          0.47256000       0.67927000       0.02656000
     3  C          0.47256000       0.82073000       0.52656000
     4  C          0.52744000       0.32073000       0.97344000
     5  C          0.53713000       0.92173000       0.60294000
     6  C          0.46287000       0.42173000       0.89706000
     7  C          0.46287000       0.07827000       0.39706000
     8  C          0.53713000       0.57827000       0.10294000
     9  C          0.56663000       0.10456000       0.58004000
    10  C          0.43337000       0.60456000       0.91996000
    11  C          0.43337000       0.89544000       0.41996000
    12  C          0.56663000       0.39544000       0.08004000
    13  I          0.66514300       0.25458400       0.69784300
    14  I          0.33485700       0.75458400       0.80215700
    15  I          0.33485700       0.74541600       0.30215700
    16  I          0.66514300       0.24541600       0.19784300
    17  F          0.57282000       0.83895000       0.70522000
    18  F          0.42718000       0.33895000       0.79478000
    19  F          0.42718000       0.16105000       0.29478000
    20  F          0.57282000       0.66105000       0.20522000
    21  F          0.55162000       0.35594000       0.44513000
    22  F          0.44838000       0.85594000       0.05487000
    23  F          0.44838000       0.64406000       0.55487000
    24  F          0.55162000       0.14406000       0.94513000
    25  N          0.79193000       0.49785000       0.89917000
    26  N          0.20807000      -0.00215000       0.60083000
    27  N          0.20807000       0.50215000       0.10083000
    28  N          0.79193000       0.00215000       0.39917000
    29  C          0.74195000       0.65929000       0.88885000
    30  C          0.25805000       0.15929000       0.61115000
    31  C          0.25805000       0.34071000       0.11115000
    32  C          0.74195000       0.84071000       0.38885000
    33  H          0.70000000       0.67980000       0.82020000
    34  H          0.30000000       0.17980000       0.67980000
    35  H          0.30000000       0.32020000       0.17980000
    36  H          0.70000000       0.82020000       0.32020000
    37  C          0.74776000       0.79848000       0.97294000
    38  C          0.25224000       0.29848000       0.52706000
    39  C          0.25224000       0.20152000       0.02706000
    40  C          0.74776000       0.70152000       0.47294000
    41  H          0.71260000       0.91100000       0.96020000
    42  H          0.28740000       0.41100000       0.53980000
    43  H          0.28740000       0.08900000       0.03980000
    44  H          0.71260000       0.58900000       0.46020000
    45  C          0.80676000       0.76586000       0.07606000
    46  C          0.19324000       0.26586000       0.42394000
    47  C          0.19324000       0.23414000       0.92394000
    48  C          0.80676000       0.73414000       0.57606000
    49  H          0.81130000       0.85470000       0.13570000
    50  H          0.18870000       0.35470000       0.36430000
    51  H          0.18870000       0.14530000       0.86430000
    52  H          0.81130000       0.64530000       0.63570000
    53  C          0.85894000       0.59906000       0.08944000
    54  C          0.14106000       0.09906000       0.41056000
    55  C          0.14106000       0.40094000       0.91056000
    56  C          0.85894000       0.90094000       0.58944000
    57  H          0.89990000       0.57430000       0.15820000
    58  H          0.10010000       0.07430000       0.34180000
    59  H          0.10010000       0.42570000       0.84180000
    60  H          0.89990000       0.92570000       0.65820000
    61  C          0.84973000       0.46855000      -0.00033000
    62  C          0.15027000       0.96855000       0.50033000
    63  C          0.15027000       0.53145000       0.00033000
    64  C          0.84973000       0.03145000       0.49967000
    65  C          0.90693000       0.28776000       0.00824000
    66  C          0.09307000       0.78776000       0.49176000
    67  C          0.09307000       0.71224000      -0.00824000
    68  C          0.90693000       0.21224000       0.50824000
    69  S          0.96490120       0.20992000       0.13500100
    70  S          0.03509880       0.70992000       0.36499900
    71  S          0.03509880       0.79008000       0.86499900
    72  S          0.96490120       0.29008000       0.63500100
    73  N          0.90903000       0.19876000       0.91027000
    74  N          0.09097000       0.69876000       0.58973000
    75  N          0.09097000       0.80124000       0.08973000
    76  N          0.90903000       0.30124000       0.41027000
    77  H          0.93930000       0.09440000       0.90560000
    78  H          0.06070000       0.59440000       0.59440000
    79  H          0.06070000       0.90560000       0.09440000
    80  H          0.93930000       0.40560000       0.40560000
    81  H          0.88840000       0.25850000       0.84670000
    82  H          0.11160000       0.75850000       0.65330000
    83  H          0.11160000       0.74150000       0.15330000
    84  H          0.88840000       0.24150000       0.34670000
