data_VULLEV
_symmetry_space_group_name_H-M    'P1'
_symmetry_Int_Tables_number       1
loop_
_symmetry_equiv_pos_site_id
_symmetry_equiv_pos_as_xyz
1 x,y,z
_cell_length_a                   5.7744
_cell_length_b                   10.1688
_cell_length_c                   13.2641
_cell_angle_alpha                88.772
_cell_angle_beta                 84.792
_cell_angle_gamma                82.252
loop_
_atom_site_label
_atom_site_type_symbol
_atom_site_fract_x
_atom_site_fract_y
_atom_site_fract_z
     1  C          0.94344000       0.86082000       0.10202180
     2  C          0.05656000       0.13918000       0.89797820
     3  C          0.75134000       0.95432000       0.08802190
     4  C          0.24866000       0.04568000       0.91197810
     5  H          0.62850000       0.93190000       0.05130000
     6  H          0.37150000       0.06810000       0.94870000
     7  C          0.73735000       0.08063000       0.12722000
     8  C          0.26265000       0.91937000       0.87278000
     9  H          0.60480000       0.14420000       0.11730000
    10  H          0.39520000       0.85580000       0.88270000
    11  C          0.91365000       0.11443000       0.18042000
    12  C          0.08635000       0.88557000       0.81958000
    13  H          0.90350000       0.20130000       0.20670000
    14  H          0.09650000       0.79870000       0.79330000
    15  C          0.10575000       0.02163000       0.19552000
    16  C          0.89425000       0.97837000       0.80448000
    17  H          0.22740000       0.04460000       0.23260000
    18  H          0.77260000       0.95540000       0.76740000
    19  C          0.12065000       0.89633000       0.15672000
    20  C          0.87935000       0.10367000       0.84328000
    21  H          0.25310000       0.83290000       0.16730000
    22  H          0.74690000       0.16710000       0.83270000
    23  C          0.95604000       0.72622000       0.05907190
    24  C          0.04396000       0.27378000       0.94092810
    25  S          0.72452110       0.66970600       0.01537500
    26  S          0.27547890       0.33029400       0.98462500
    27  H          0.17560000       0.57640000       0.03130000
    28  H          0.82440000       0.42360000       0.96870000
    29  H          0.27650000       0.67330000       0.08030000
    30  H          0.72350000       0.32670000       0.91970000
    31  N          0.15764000       0.65163000       0.05522000
    32  N          0.84236000       0.34837000       0.94478000
    33  C          0.55004000       0.38643000       0.34852000
    34  C          0.44996000       0.61357000       0.65148000
    35  C          0.67335000       0.37643000       0.43352000
    36  C          0.32665000       0.62357000       0.56648000
    37  I          0.63670300       0.50197417       0.22436714
    38  I          0.36329700       0.49802583       0.77563286
    39  C          0.61805000       0.29783000       0.51402000
    40  C          0.38195000       0.70217000       0.48598000
    41  F          0.85473000       0.44453180       0.43873130
    42  F          0.14527000       0.55546820       0.56126870
    43  C          0.43315000       0.22773000       0.51342000
    44  C          0.56685000       0.77227000       0.48658000
    45  F          0.74713000       0.29202000       0.59400130
    46  F          0.25287000       0.70798000       0.40599870
    47  C          0.30715000       0.23763000       0.42852000
    48  C          0.69285000       0.76237000       0.57148000
    49  I          0.34294400       0.10975200       0.63386215
    50  I          0.65705600       0.89024800       0.36613785
    51  C          0.36535000       0.31573000       0.34762000
    52  C          0.63465000       0.68427000       0.65238000
    53  F          0.12583000       0.17097160       0.42314130
    54  F          0.87417000       0.82902840       0.57685870
    55  F          0.23893000       0.32021170       0.26709120
    56  F          0.76107000       0.67978830       0.73290880
