data_VUNRON
_symmetry_space_group_name_H-M    'P1'
_symmetry_Int_Tables_number       1
loop_
_symmetry_equiv_pos_site_id
_symmetry_equiv_pos_as_xyz
1 x,y,z
_cell_length_a                   11.72885
_cell_length_b                   14.19055
_cell_length_c                   8.50373
_cell_angle_alpha                90.0
_cell_angle_beta                 105.1624
_cell_angle_gamma                90.0
loop_
_atom_site_label
_atom_site_type_symbol
_atom_site_fract_x
_atom_site_fract_y
_atom_site_fract_z
     1  Br         0.08587200       0.13562200       0.00519300
     2  Br         0.91412800       0.63562200       0.49480700
     3  Br         0.91412800       0.86437800      -0.00519300
     4  Br         0.08587200       0.36437800       0.50519300
     5  Br         0.84861200       0.11251200       0.63129300
     6  Br         0.15138800       0.61251200       0.86870700
     7  Br         0.15138800       0.88748800       0.36870700
     8  Br         0.84861200       0.38748800       0.13129300
     9  O          0.20089170       0.13617150       0.37532000
    10  O          0.79910830       0.63617150       0.12468000
    11  O          0.79910830       0.86382850       0.62468000
    12  O          0.20089170       0.36382850       0.87532000
    13  O          0.73320170       0.13724150       0.26292000
    14  O          0.26679830       0.63724150       0.23708000
    15  O          0.26679830       0.86275850       0.73708000
    16  O          0.73320170       0.36275850       0.76292000
    17  C          0.01552000       0.13442000       0.17973000
    18  C          0.98448000       0.63442000       0.32027000
    19  C          0.98448000       0.86558000       0.82027000
    20  C          0.01552000       0.36558000       0.67973000
    21  C          0.91772000       0.12312000       0.45693000
    22  C          0.08228000       0.62312000       0.04307000
    23  C          0.08228000       0.87688000       0.54307000
    24  C          0.91772000       0.37688000       0.95693000
    25  C          0.84112000       0.13212000       0.29393000
    26  C          0.15888000       0.63212000       0.20607000
    27  C          0.15888000       0.86788000       0.70607000
    28  C          0.84112000       0.36788000       0.79393000
    29  C          0.09362000       0.13215190       0.34443000
    30  C          0.90638000       0.63215190       0.15557000
    31  C          0.90638000       0.86784810       0.65557000
    32  C          0.09362000       0.36784810       0.84443000
    33  C          0.89712000       0.13512000       0.15323000
    34  C          0.10288000       0.63512000       0.34677000
    35  C          0.10288000       0.86488000       0.84677000
    36  C          0.89712000       0.36488000       0.65323000
    37  C          0.03692000       0.12204190       0.48433000
    38  C          0.96308000       0.62204190       0.01567000
    39  C          0.96308000       0.87795810       0.51567000
    40  C          0.03692000       0.37795810      -0.01567000
    41  O          0.82328180       0.13868160       0.00512000
    42  O          0.17671820       0.63868160       0.49488000
    43  O          0.17671820       0.86131840      -0.00512000
    44  O          0.82328180       0.36131840       0.50512000
    45  H          0.75330000       0.14120000       0.00340000
    46  H          0.24670000       0.64120000       0.49660000
    47  H          0.24670000       0.85880000      -0.00340000
    48  H          0.75330000       0.35880000       0.50340000
    49  O          0.10807180       0.11365150       0.63182000
    50  O          0.89192820       0.61365150       0.86818000
    51  O          0.89192820       0.88634850       0.36818000
    52  O          0.10807180       0.38634850       0.13182000
    53  H          0.18530000       0.12020000       0.63840000
    54  H          0.81470000       0.62020000       0.86160000
    55  H          0.81470000       0.87980000       0.36160000
    56  H          0.18530000       0.37980000       0.13840000
    57  N          0.33962000       0.11647180       0.73313000
    58  N          0.66038000       0.61647180       0.76687000
    59  N          0.66038000       0.88352820       0.26687000
    60  N          0.33962000       0.38352820       0.23313000
    61  N          0.57622000       0.12746170       0.90413000
    62  N          0.42378000       0.62746170       0.59587000
    63  N          0.42378000       0.87253830       0.09587000
    64  N          0.57622000       0.37253830       0.40413000
    65  C          0.50132000       0.19912000       0.90643000
    66  C          0.49868000       0.69912000       0.59357000
    67  C          0.49868000       0.80088000       0.09357000
    68  C          0.50132000       0.30088000       0.40643000
    69  C          0.41382000       0.04632000       0.73193000
    70  C          0.58618000       0.54632000       0.76807000
    71  C          0.58618000       0.95368000       0.26807000
    72  C          0.41382000       0.45368000       0.23193000
    73  H          0.38520000      -0.00870000       0.67060000
    74  H          0.61480000       0.49130000       0.82940000
    75  H          0.61480000       0.00870000       0.32940000
    76  H          0.38520000       0.50870000       0.17060000
    77  C          0.38302000       0.19242000       0.82043000
    78  C          0.61698000       0.69242000       0.67957000
    79  C          0.61698000       0.80758000       0.17957000
    80  C          0.38302000       0.30758000       0.32043000
    81  H          0.33170000       0.24370000       0.82410000
    82  H          0.66830000       0.74370000       0.67590000
    83  H          0.66830000       0.75630000       0.17590000
    84  H          0.33170000       0.25630000       0.32410000
    85  C          0.53332000       0.05072000       0.81833000
    86  C          0.46668000       0.55072000       0.68167000
    87  C          0.46668000       0.94928000       0.18167000
    88  C          0.53332000       0.44928000       0.31833000
    89  C          0.54963000       0.28472000       0.00253000
    90  C          0.45037000       0.78472000       0.49747000
    91  C          0.45037000       0.71528000      -0.00253000
    92  C          0.54963000       0.21528000       0.50253000
    93  H          0.59170000       0.26610000       0.11350000
    94  H          0.40830000       0.76610000       0.38650000
    95  H          0.40830000       0.73390000       0.88650000
    96  H          0.59170000       0.23390000       0.61350000
    97  H          0.48470000       0.32730000       0.00640000
    98  H          0.51530000       0.82730000       0.49360000
    99  H          0.51530000       0.67270000      -0.00640000
   100  H          0.48470000       0.17270000       0.50640000
   101  H          0.60430000       0.31690000       0.95080000
   102  H          0.39570000       0.81690000       0.54920000
   103  H          0.39570000       0.68310000       0.04920000
   104  H          0.60430000       0.18310000       0.45080000
   105  C          0.61553000       0.97088000       0.81694000
   106  C          0.38447000       0.47088000       0.68306000
   107  C          0.38447000       0.02912000       0.18306000
   108  C          0.61553000       0.52912000       0.31694000
   109  H          0.65680000       0.98160000       0.73220000
   110  H          0.34320000       0.48160000       0.76780000
   111  H          0.34320000       0.01840000       0.26780000
   112  H          0.65680000       0.51840000       0.23220000
   113  H          0.57060000       0.91200000       0.79450000
   114  H          0.42940000       0.41200000       0.70550000
   115  H          0.42940000       0.08800000       0.20550000
   116  H          0.57060000       0.58800000       0.29450000
   117  H          0.67330000       0.96660000       0.92330000
   118  H          0.32670000       0.46660000       0.57670000
   119  H          0.32670000       0.03340000       0.07670000
   120  H          0.67330000       0.53340000       0.42330000
