data_VURVIO
_symmetry_space_group_name_H-M    'P1'
_symmetry_Int_Tables_number       1
loop_
_symmetry_equiv_pos_site_id
_symmetry_equiv_pos_as_xyz
1 x,y,z
_cell_length_a                   5.03662
_cell_length_b                   9.36374
_cell_length_c                   13.34917
_cell_angle_alpha                97.6692
_cell_angle_beta                 98.5793
_cell_angle_gamma                103.6602
loop_
_atom_site_label
_atom_site_type_symbol
_atom_site_fract_x
_atom_site_fract_y
_atom_site_fract_z
     1  C          0.86528000       0.40280130       0.40250900
     2  C          0.13472000       0.59719870       0.59749100
     3  C          0.13302000       0.52361130       0.41252900
     4  C          0.86698000       0.47638870       0.58747100
     5  C          0.25352000       0.61506130       0.51348900
     6  C          0.74648000       0.38493870       0.48651100
     7  Cl         0.55894600       0.75173300       0.52294200
     8  Cl         0.44105400       0.24826700       0.47705800
     9  O          0.23641190       0.53849110       0.33621700
    10  O          0.76358810       0.46150890       0.66378300
    11  O          0.75900810       0.31733100       0.31252700
    12  O          0.24099190       0.68266900       0.68747300
    13  H          0.84550000       0.34030000       0.25520000
    14  H          0.15450000       0.65970000       0.74480000
    15  C          0.95278000       0.40833130       0.07883900
    16  C          0.04722000       0.59166870       0.92116100
    17  C          0.11842000       0.37275130      -0.00531900
    18  C          0.88158000       0.62724870       0.00531900
    19  C          0.84638000       0.53149130       0.07914900
    20  C          0.15362000       0.46850870       0.92085100
    21  Cl         0.65113400       0.56837300       0.17161200
    22  Cl         0.34886600       0.43162700       0.82838800
    23  O          0.21027190       0.26156100      -0.00340700
    24  O          0.78972810       0.73843900       0.00340700
    25  O          0.92650820       0.31777100       0.14192700
    26  O          0.07349180       0.68222900       0.85807300
    27  C          0.13363000       0.93495860       0.27928100
    28  C          0.86637000       0.06504140       0.72071900
    29  C          0.08633000       0.05773140       0.23958100
    30  C          0.91367000       0.94226860       0.76041900
    31  N          0.19752000       0.09995120       0.15968900
    32  N          0.80248000       0.90004880       0.84031100
    33  C          0.36193000       0.02825150       0.11545100
    34  C          0.63807000       0.97174850       0.88454900
    35  C          0.41483000       0.90299860       0.14997100
    36  C          0.58517000       0.09700140       0.85002900
    37  C          0.29873000       0.85591860       0.23205100
    38  C          0.70127000       0.14408140       0.76794900
    39  C          0.00833000       0.89044840       0.36937110
    40  C         -0.00833000       0.10955160       0.63062890
    41  H         -0.03140000       0.11620000       0.26511400
    42  H          0.03140000       0.88380000       0.73488600
    43  H          0.43740000       0.07420000       0.06551300
    44  H          0.56260000       0.92580000       0.93448700
    45  H          0.53240000       0.85480000       0.11881400
    46  H          0.46760000       0.14520000       0.88118600
    47  H          0.33340000       0.76780000       0.25661400
    48  H          0.66660000       0.23220000       0.74338600
    49  H          0.90460000       0.79180000       0.35461500
    50  H          0.09540000       0.20820000       0.64538500
    51  H          0.15740000       0.90280000       0.42911500
    52  H          0.84260000       0.09720000       0.57088500
    53  H          0.88460000       0.95480000       0.38571600
    54  H          0.11540000       0.04520000       0.61428400
    55  H          0.15540000       0.18020000       0.13511600
    56  H          0.84460000       0.81980000       0.86488400
