data_VURWUB
_symmetry_space_group_name_H-M    'P1'
_symmetry_Int_Tables_number       1
loop_
_symmetry_equiv_pos_site_id
_symmetry_equiv_pos_as_xyz
1 x,y,z
_cell_length_a                   7.1673
_cell_length_b                   12.2216
_cell_length_c                   13.3817
_cell_angle_alpha                71.41416
_cell_angle_beta                 86.292
_cell_angle_gamma                88.91716
loop_
_atom_site_label
_atom_site_type_symbol
_atom_site_fract_x
_atom_site_fract_y
_atom_site_fract_z
     1  C          0.64604000       0.54962000       0.91852000
     2  C          0.35396000       0.45038000       0.08148000
     3  C          0.65173000       0.55632000       0.03122000
     4  C          0.34827000       0.44368000       0.96878000
     5  C          0.50394000       0.50842000       0.10492000
     6  C          0.49606000       0.49158000       0.89508000
     7  Cl         0.50601900       0.51791600       0.23143600
     8  Cl         0.49398100       0.48208400       0.76856400
     9  O          0.79133000       0.60531160       0.04897160
    10  O          0.20867000       0.39468840       0.95102840
    11  O          0.77933000       0.59672150       0.85464160
    12  O          0.22067000       0.40327850       0.14535840
    13  C          0.86864000       0.06212000       0.75652000
    14  C          0.13136000       0.93788000       0.24348000
    15  C          0.89114000       0.18032000       0.74852000
    16  C          0.10886000       0.81968000       0.25148000
    17  C          0.85274000       0.27082000       0.64442000
    18  C          0.14726000       0.72918000       0.35558000
    19  C          0.80144000       0.24102000       0.56142000
    20  C          0.19856000       0.75898000       0.43858000
    21  C          0.78064000       0.12072000       0.56842000
    22  C          0.21936000       0.87928000       0.43158000
    23  C          0.81694000       0.02672000       0.67382000
    24  C          0.18306000       0.97328000       0.32618000
    25  O          0.79523000       0.92311840       0.67621170
    26  O          0.20477000       0.07688160       0.32378830
    27  O          0.73543000       0.08994170       0.49481170
    28  O          0.26457000       0.91005830       0.50518830
    29  Cl         0.76311100       0.34551600       0.44251600
    30  Cl         0.23688900       0.65448400       0.55748400
    31  O          0.87043000       0.37918160       0.63869170
    32  O          0.12957000       0.62081840       0.36130830
    33  O          0.93913000       0.21527160       0.81962160
    34  O          0.06087000       0.78472840       0.18037840
    35  Cl         0.90980100       0.96030400       0.87725600
    36  Cl         0.09019900       0.03969600       0.12274400
    37  H          0.91650000       0.38930000       0.68840000
    38  H          0.08350000       0.61070000       0.31160000
    39  C          0.35394000       0.78772000       0.94192000
    40  C          0.64606000       0.21228000       0.05808000
    41  C          0.42924000       0.80982000       0.83922000
    42  C          0.57076000       0.19018000       0.16078000
    43  C          0.33244000       0.77992000       0.76543000
    44  C          0.66756000       0.22008000       0.23457000
    45  C          0.16154000       0.72662000       0.79512000
    46  C          0.83846000       0.27338000       0.20488000
    47  N          0.09313000       0.70287190       0.89512000
    48  N          0.90687000       0.29712810       0.10488000
    49  C          0.18194000       0.73232000       0.96792000
    50  C          0.81806000       0.26768000       0.03208000
    51  C          0.45135000       0.82233000       0.02383000
    52  C          0.54865000       0.17767000       0.97617000
    53  H          0.40460000       0.88740000       0.03240000
    54  H          0.59540000       0.11260000       0.96760000
    55  H          0.58160000       0.83430000       0.00240000
    56  H          0.41840000       0.16570000      -0.00240000
    57  H          0.43750000       0.76930000       0.09340000
    58  H          0.56250000       0.23070000       0.90660000
    59  H          0.54350000       0.84730000       0.81830000
    60  H          0.45650000       0.15270000       0.18170000
    61  H          0.38250000       0.79330000       0.70330000
    62  H          0.61750000       0.20670000       0.29670000
    63  H          0.09040000       0.70430000       0.75030000
    64  H          0.90960000       0.29570000       0.24970000
    65  H          0.13840000       0.71630000       0.03930000
    66  H          0.86160000       0.28370000       0.96070000
    67  H         -0.01060000       0.66920000       0.91330000
    68  H          0.01060000       0.33080000       0.08670000
    69  C          0.68204000       0.80998000       0.35992000
    70  C          0.31796000       0.19002000       0.64008000
    71  C          0.70324000       0.87987000       0.42153000
    72  C          0.29676000       0.12013000       0.57847000
    73  N          0.73583000       0.83508000       0.52392000
    74  N          0.26417000       0.16492000       0.47608000
    75  C          0.75004000       0.71997000       0.57253000
    76  C          0.24996000       0.28003000       0.42747000
    77  C          0.73204000       0.64667000       0.51443000
    78  C          0.26796000       0.35333000       0.48557000
    79  C          0.69674000       0.69107000       0.40843000
    80  C          0.30326000       0.30893000       0.59157000
    81  C          0.64355000       0.86127000       0.24473000
    82  C          0.35645000       0.13873000       0.75527000
    83  H          0.49470000       0.87060000       0.23740000
    84  H          0.50530000       0.12940000       0.76260000
    85  H          0.69660000       0.81160000       0.20740000
    86  H          0.30340000       0.18840000       0.79260000
    87  H          0.70250000       0.93770000       0.21630000
    88  H          0.29750000       0.06230000       0.78370000
    89  H          0.69740000       0.96380000       0.39020000
    90  H          0.30260000       0.03620000       0.60980000
    91  H          0.78040000       0.69770000       0.64830000
    92  H          0.21960000       0.30230000       0.35170000
    93  H          0.73340000       0.56570000       0.54830000
    94  H          0.26660000       0.43430000       0.45170000
    95  H          0.68340000       0.63470000       0.36930000
    96  H          0.31660000       0.36530000       0.63070000
    97  H          0.77660000       0.88660000       0.56340000
    98  H          0.22340000       0.11340000       0.43660000
    99  O          0.01143000       0.46853170       0.76513170
   100  O         -0.01143000       0.53146830       0.23486830
   101  H          0.08650000       0.44130000       0.81540000
   102  H          0.91350000       0.55870000       0.18460000
   103  H          0.93170000       0.49640000       0.79040000
   104  H          0.06830000       0.50360000       0.20960000
