data_VUXXIX
_symmetry_space_group_name_H-M    'P1'
_symmetry_Int_Tables_number       1
loop_
_symmetry_equiv_pos_site_id
_symmetry_equiv_pos_as_xyz
1 x,y,z
_cell_length_a                   7.7022
_cell_length_b                   10.7264
_cell_length_c                   19.0107
_cell_angle_alpha                83.86117
_cell_angle_beta                 78.79416
_cell_angle_gamma                73.61215
loop_
_atom_site_label
_atom_site_type_symbol
_atom_site_fract_x
_atom_site_fract_y
_atom_site_fract_z
     1  O          0.51653130       0.27771900       0.61192500
     2  O          0.48346870       0.72228100       0.38807500
     3  O          0.64354140       0.06698900       0.59129500
     4  O          0.35645860       0.93301100       0.40870500
     5  O          0.68036130       0.09242900       0.92200500
     6  O          0.31963870       0.90757100       0.07799500
     7  C          0.62039170       0.13761130       0.70801700
     8  C          0.37960830       0.86238870       0.29198300
     9  C          0.56165170       0.24210130       0.75274700
    10  C          0.43834830       0.75789870       0.24725300
    11  H          0.50500000       0.32650000       0.73430000
    12  H          0.49500000       0.67350000       0.26570000
    13  C          0.58528180       0.22352130       0.82341700
    14  C          0.41471820       0.77647870       0.17658300
    15  H          0.54600000       0.29530000       0.85330000
    16  H          0.45400000       0.70470000       0.14670000
    17  C          0.66680170       0.09943130       0.85130700
    18  C          0.33319830       0.90056870       0.14869300
    19  C          0.72677180      -0.00590130       0.80742700
    20  C          0.27322820       0.00590130       0.19257300
    21  H          0.78300000       0.90960000       0.82600000
    22  H          0.21700000       0.09040000       0.17400000
    23  C          0.70292170       0.01481130       0.73615700
    24  C          0.29707830       0.98518870       0.26384300
    25  H          0.74390000       0.94350000       0.70590000
    26  H          0.25610000       0.05650000       0.29410000
    27  C          0.59569170       0.15588130       0.63141700
    28  C          0.40430830       0.84411870       0.36858300
    29  C          0.76407180       0.96917870       0.95543700
    30  C          0.23592820       0.03082130       0.04456300
    31  H          0.89370000       0.93650000       0.93210000
    32  H          0.10630000       0.06350000       0.06790000
    33  H          0.69770000       0.90430000       0.95140000
    34  H          0.30230000       0.09570000       0.04860000
    35  C          0.75313180      -0.00767140       0.03313700
    36  C          0.24686820       0.00767140       0.96686300
    37  H          0.62240000       0.02410000       0.05540000
    38  H          0.37760000       0.97590000       0.94460000
    39  H          0.81400000       0.06120000       0.03580000
    40  H          0.18600000       0.93880000       0.96420000
    41  C          0.84284190       0.87057860       0.07582700
    42  C          0.15715810       0.12942140       0.92417300
    43  H          0.78230000       0.80150000       0.07330000
    44  H          0.21770000       0.19850000       0.92670000
    45  H          0.97380000       0.83890000       0.05390000
    46  H          0.02620000       0.16110000       0.94610000
    47  C          0.82942000       0.89650840       0.15397700
    48  C          0.17058000       0.10349160       0.84602300
    49  H          0.70000000       0.92990000       0.17550000
    50  H          0.30000000       0.07010000       0.82450000
    51  H          0.89580000       0.96100000       0.15680000
    52  H          0.10420000       0.03900000       0.84320000
    53  H          0.88360000       0.81540000       0.18000000
    54  H          0.11640000       0.18460000       0.82000000
    55  H          0.49730000       0.28820000       0.55971300
    56  H          0.50270000       0.71180000       0.44028700
    57  O          0.22564130       0.47777100       0.86730500
    58  O          0.77435870       0.52222900       0.13269500
    59  O          0.11681150       0.69204100       0.88298500
    60  O          0.88318850       0.30795900       0.11701500
    61  O          0.08262140       0.65267900       0.55408500
    62  O          0.91737860       0.34732100       0.44591500
    63  C          0.13736170       0.61449130       0.76834300
    64  C          0.86263830       0.38550870       0.23165700
    65  C          0.14716180       0.50757130       0.73034300
    66  C          0.85283820       0.49242870       0.26965700
    67  H          0.16740000       0.42320000       0.75380000
    68  H          0.83260000       0.57680000       0.24620000
    69  C          0.12777180       0.52337130       0.65904300
    70  C          0.87222820       0.47662870       0.34095700
    71  H          0.13310000       0.45020000       0.63380000
    72  H          0.86690000       0.54980000       0.36620000
    73  C          0.10025170       0.64686130       0.62408300
    74  C          0.89974830       0.35313870       0.37591700
    75  C          0.09327180       0.75389130       0.66093300
    76  C          0.90672820       0.24610870       0.33906700
    77  H          0.07640000       0.83790000       0.63710000
    78  H          0.92360000       0.16210000       0.36290000
    79  C          0.11117170       0.73674130       0.73279300
    80  C          0.88882830       0.26325870       0.26720700
    81  H          0.10540000       0.80990000       0.75820000
    82  H          0.89460000       0.19010000       0.24180000
    83  C          0.15721180       0.60009140       0.84525300
    84  C          0.84278820       0.39990860       0.15474700
    85  C          0.02570190       0.77902130       0.51867300
    86  C          0.97429810       0.22097870       0.48132700
    87  H          0.12330000       0.82460000       0.51290000
    88  H          0.87670000       0.17540000       0.48710000
    89  H          0.91290000       0.83240000       0.54720000
    90  H          0.08710000       0.16760000       0.45280000
    91  C          0.98957820       0.75828130       0.44635300
    92  C          0.01042180       0.24171870       0.55364700
    93  H          0.90280000       0.70360000       0.45270000
    94  H          0.09720000       0.29640000       0.54730000
    95  H          0.10590000       0.71140000       0.41690000
    96  H          0.89410000       0.28860000       0.58310000
    97  C          0.90938000       0.88721140       0.40719300
    98  C          0.09062000       0.11278860       0.59280700
    99  H          0.78990000       0.93170000       0.43560000
   100  H          0.21010000       0.06830000       0.56440000
   101  H         -0.00700000       0.94370000       0.40360000
   102  H          0.00700000       0.05630000       0.59640000
   103  C          0.88128000       0.86963160       0.33222200
   104  C          0.11872000       0.13036840       0.66777800
   105  H         -0.00000000       0.82880000       0.30320000
   106  H         -0.00000000       0.17120000       0.69680000
   107  H          0.82770000       0.95470000       0.30970000
   108  H          0.17230000       0.04530000       0.69030000
   109  H          0.79830000       0.81410000       0.33550000
   110  H          0.20170000       0.18590000       0.66450000
   111  H          0.24730000       0.46820000       0.91948600
   112  H          0.75270000       0.53180000       0.08051400
   113  N          0.45623150       0.30647110       0.47936600
   114  N          0.54376850       0.69352890       0.52063400
   115  N          0.28494160       0.44868120      -0.00061600
   116  N          0.71505840       0.55131880       0.00061600
   117  C          0.48692180       0.19855130       0.44432700
   118  C          0.51307820       0.80144870       0.55567300
   119  H          0.52830000       0.11660000       0.46880000
   120  H          0.47170000       0.88340000       0.53120000
   121  C          0.46126180       0.20069130       0.37437700
   122  C          0.53873820       0.79930870       0.62562300
   123  H          0.48510000       0.12140000       0.35170000
   124  H          0.51490000       0.87860000       0.64830000
   125  C          0.40048170       0.31899130       0.33696700
   126  C          0.59951830       0.68100870       0.66303300
   127  C          0.36882000       0.43079130       0.37340700
   128  C          0.63118000       0.56920870       0.62659300
   129  H          0.32790000       0.51400000       0.35020000
   130  H          0.67210000       0.48600000       0.64980000
   131  C          0.39692000       0.42053140       0.44380700
   132  C          0.60308000       0.57946860       0.55619300
   133  H          0.37290000       0.49820000       0.46800000
   134  H          0.62710000       0.50180000       0.53200000
   135  C          0.18349190       0.54309150       0.04192700
   136  C          0.81650810       0.45690850       0.95807300
   137  H          0.09360000       0.61160000       0.02300000
   138  H          0.90640000       0.38840000       0.97700000
   139  C          0.20326190       0.54573140       0.11249700
   140  C          0.79673810       0.45426860       0.88750300
   141  H          0.12780000       0.61510000       0.14090000
   142  H          0.87220000       0.38490000       0.85910000
   143  C          0.33331170       0.44704130       0.14174700
   144  C          0.66668830       0.55295870       0.85825300
   145  C          0.43955190       0.34872130       0.09681700
   146  C          0.56044810       0.65127870       0.90318300
   147  H          0.53100000       0.27920000       0.11410000
   148  H          0.46900000       0.72080000       0.88590000
   149  C          0.41101190       0.35308140       0.02703700
   150  C          0.58898810       0.64691860       0.97296300
   151  H          0.48420000       0.28510000      -0.00280000
   152  H          0.51580000       0.71490000       0.00280000
   153  C          0.37029190       0.32021130       0.26098700
   154  C          0.62970810       0.67978870       0.73901300
   155  H          0.25470000       0.29620000       0.26220000
   156  H          0.74530000       0.70380000       0.73780000
   157  H          0.47170000       0.25250000       0.23550000
   158  H          0.52830000       0.74750000       0.76450000
   159  C          0.35958180       0.44973120       0.21788700
   160  C          0.64041820       0.55026880       0.78211300
   161  H          0.25620000       0.51730000       0.24250000
   162  H          0.74380000       0.48270000       0.75750000
   163  H          0.47410000       0.47490000       0.21720000
   164  H          0.52590000       0.52510000       0.78280000
