data_VUYVIV
_symmetry_space_group_name_H-M    'P1'
_symmetry_Int_Tables_number       1
loop_
_symmetry_equiv_pos_site_id
_symmetry_equiv_pos_as_xyz
1 x,y,z
_cell_length_a                   4.85201
_cell_length_b                   10.92451
_cell_length_c                   19.79811
_cell_angle_alpha                90.0
_cell_angle_beta                 90.49601
_cell_angle_gamma                90.0
loop_
_atom_site_label
_atom_site_type_symbol
_atom_site_fract_x
_atom_site_fract_y
_atom_site_fract_z
     1  C          0.34754000       0.77952000       0.58109110
     2  C          0.65246000       0.27952000       0.91890890
     3  C          0.65246000       0.22048000       0.41890890
     4  C          0.34754000       0.72048000       0.08109110
     5  C          0.75756000       0.54924180       0.67279900
     6  C          0.24244000       0.04924180       0.82720100
     7  C          0.24244000       0.45075820       0.32720100
     8  C          0.75756000       0.95075820       0.17279900
     9  C          0.89026000       0.50722000       0.61681100
    10  C          0.10974000       0.00722000       0.88318900
    11  C          0.10974000       0.49278000       0.38318900
    12  C          0.89026000      -0.00722000       0.11681100
    13  H          0.85250000       0.42980000       0.59950000
    14  H          0.14750000       0.92980000       0.90050000
    15  H          0.14750000       0.57020000       0.40050000
    16  H          0.85250000       0.07020000       0.09950000
    17  C          0.08254000       0.58262000       0.58629110
    18  C          0.91746000       0.08262000       0.91370890
    19  C          0.91746000       0.41738000       0.41370890
    20  C          0.08254000       0.91738000       0.08629110
    21  H          0.17530000       0.55570000       0.54820000
    22  H          0.82470000       0.05570000       0.95180000
    23  H          0.82470000       0.44430000       0.45180000
    24  H          0.17530000       0.94430000       0.04820000
    25  C          0.13684000       0.69760190       0.61233100
    26  C          0.86316000       0.19760190       0.88766900
    27  C          0.86316000       0.30239810       0.38766900
    28  C          0.13684000       0.80239810       0.11233100
    29  C         -0.00634000       0.73712000       0.66845100
    30  C          0.00634000       0.23712000       0.83154900
    31  C          0.00634000       0.26288000       0.33154900
    32  C         -0.00634000       0.76288000       0.16845100
    33  H          0.02830000       0.81480000       0.68580000
    34  H         -0.02830000       0.31480000       0.81420000
    35  H         -0.02830000       0.18520000       0.31420000
    36  H          0.02830000       0.68520000       0.18580000
    37  C          0.80096000       0.66362190       0.69917110
    38  C          0.19904000       0.16362190       0.80082890
    39  C          0.19904000       0.33637810       0.30082890
    40  C          0.80096000       0.83637810       0.19917110
    41  H          0.70370000       0.69080000       0.73660000
    42  H          0.29630000       0.19080000       0.76340000
    43  H          0.29630000       0.30920000       0.26340000
    44  H          0.70370000       0.80920000       0.23660000
    45  H          0.56640000       0.78861900       0.50831100
    46  H          0.43360000       0.28861900       0.99168900
    47  H          0.43360000       0.21138100       0.49168900
    48  H          0.56640000       0.71138100       0.00831100
    49  N          0.55486000       0.46869190       0.70582900
    50  N          0.44514000       0.96869190       0.79417100
    51  N          0.44514000       0.53130810       0.29417100
    52  N          0.55486000       0.03130810       0.20582900
    53  O          0.40573000       0.87721140       0.60756800
    54  O          0.59427000       0.37721140       0.89243200
    55  O          0.59427000       0.12278860       0.39243200
    56  O          0.40573000       0.62278860       0.10756800
    57  O          0.45663000       0.73838160       0.52653800
    58  O          0.54337000       0.23838160       0.97346200
    59  O          0.54337000       0.26161840       0.47346200
    60  O          0.45663000       0.76161840       0.02653800
    61  O          0.40536000       0.50989160       0.74887100
    62  O          0.59464000       0.00989160       0.75112900
    63  O          0.59464000       0.49010840       0.25112900
    64  O          0.40536000      -0.00989160       0.24887100
    65  O          0.54516000       0.36262170       0.68800100
    66  O          0.45484000       0.86262170       0.81199900
    67  O          0.45484000       0.63737830       0.31199900
    68  O          0.54516000       0.13737830       0.18800100
    69  C         -0.00346000       0.95887180       0.47185100
    70  C          0.00346000       0.45887180       0.02814900
    71  C          0.00346000       0.04112820       0.52814900
    72  C         -0.00346000       0.54112820       0.97185100
    73  C          0.88565000       0.81402000       0.40287110
    74  C          0.11435000       0.31402000       0.09712890
    75  C          0.11435000       0.18598000       0.59712890
    76  C          0.88565000       0.68598000       0.90287110
    77  H          0.79610000       0.74720000       0.38360000
    78  H          0.20390000       0.24720000       0.11640000
    79  H          0.20390000       0.25280000       0.61640000
    80  H          0.79610000       0.75280000       0.88360000
    81  C          0.09805000       0.87512000       0.37532110
    82  C          0.90195000       0.37512000       0.12467890
    83  C          0.90195000       0.12488000       0.62467890
    84  C          0.09805000       0.62488000       0.87532110
    85  H          0.18130000       0.85800000       0.33420000
    86  H          0.81870000       0.35800000       0.16580000
    87  H          0.81870000       0.14200000       0.66580000
    88  H          0.18130000       0.64200000       0.83420000
    89  N          0.82183000       0.86605160       0.46396900
    90  N          0.17817000       0.36605160       0.03603100
    91  N          0.17817000       0.13394840       0.53603100
    92  N          0.82183000       0.63394840       0.96396900
    93  N          0.16723000       0.96604160       0.41881800
    94  N          0.83277000       0.46604160       0.08118200
    95  N          0.83277000       0.03395840       0.58118200
    96  N          0.16723000       0.53395840       0.91881800
    97  H          0.29680000       0.01880000       0.41350000
    98  H          0.70320000       0.51880000       0.08650000
    99  H          0.70320000       0.98120000       0.58650000
   100  H          0.29680000       0.48120000       0.91350000
