data_VUZKUX
_symmetry_space_group_name_H-M    'P1'
_symmetry_Int_Tables_number       1
loop_
_symmetry_equiv_pos_site_id
_symmetry_equiv_pos_as_xyz
1 x,y,z
_cell_length_a                   8.77113
_cell_length_b                   10.83896
_cell_length_c                   17.29999
_cell_angle_alpha                81.5205
_cell_angle_beta                 84.1314
_cell_angle_gamma                86.9984
loop_
_atom_site_label
_atom_site_type_symbol
_atom_site_fract_x
_atom_site_fract_y
_atom_site_fract_z
     1  C          0.93662000       0.70532190       0.12984120
     2  C          0.06338000       0.29467810       0.87015880
     3  H          0.87250000       0.63950000       0.13020000
     4  H          0.12750000       0.36050000       0.86980000
     5  C         -0.00308000       0.77282000       0.06116130
     6  C          0.00308000       0.22718000       0.93883870
     7  H          0.97330000       0.75220000       0.01360000
     8  H          0.02670000       0.24780000       0.98640000
     9  C          0.09262000       0.87122000       0.06101130
    10  C          0.90738000       0.12878000       0.93898870
    11  H          0.13010000       0.91500000       0.01310000
    12  H          0.86990000       0.08500000       0.98690000
    13  C          0.13352000       0.90602000       0.12862130
    14  C          0.86648000       0.09398000       0.87137870
    15  H          0.19790000       0.97160000       0.12810000
    16  H          0.80210000       0.02840000       0.87190000
    17  C          0.07310180       0.83745170       0.19804110
    18  C          0.92689820       0.16254830       0.80195890
    19  C          0.97641180       0.74056160       0.19828110
    20  C          0.02358820       0.25943840       0.80171890
    21  C         -0.00086820       0.76278170       0.32189110
    22  C          0.00086820       0.23721830       0.67810890
    23  C          0.97112000       0.74754180       0.40866110
    24  C          0.02888000       0.25245820       0.59133890
    25  H          0.06870000       0.74590000       0.43070000
    26  H          0.93130000       0.25410000       0.56930000
    27  H          0.92480000       0.66790000       0.42710000
    28  H          0.07520000       0.33210000       0.57290000
    29  C          0.86722000       0.85092180       0.43867110
    30  C          0.13278000       0.14907820       0.56132890
    31  H          0.90560000       0.93070000       0.41350000
    32  H          0.09440000       0.06930000       0.58650000
    33  H          0.87440000       0.84650000       0.49460000
    34  H          0.12560000       0.15350000       0.50540000
    35  C          0.69832000       0.84732000       0.42501100
    36  C          0.30168000       0.15268000       0.57498900
    37  H          0.65980000       0.76720000       0.44960000
    38  H          0.34020000       0.23280000       0.55040000
    39  H          0.64120000       0.91140000       0.45080000
    40  H          0.35880000       0.08860000       0.54920000
    41  C          0.66781170       0.86607160       0.34136100
    42  C          0.33218830       0.13392840       0.65863900
    43  C          0.57954180       0.83069160       0.23153100
    44  C          0.42045820       0.16930840       0.76846900
    45  C          0.51432000       0.78432000       0.17270120
    46  C          0.48568000       0.21568000       0.82729880
    47  H          0.45560000       0.71370000       0.18320000
    48  H          0.54440000       0.28630000       0.81680000
    49  C          0.54072000       0.84732000       0.09827130
    50  C          0.45928000       0.15268000       0.90172870
    51  H          0.49970000       0.81840000       0.05710000
    52  H          0.50030000       0.18160000       0.94290000
    53  C          0.62732000       0.95382000       0.08258110
    54  C          0.37268000       0.04618000       0.91741890
    55  H          0.64040000      -0.00450000       0.03150000
    56  H          0.35960000       0.00450000       0.96850000
    57  C          0.69382190      -0.00143830       0.14092100
    58  C          0.30617810       0.00143830       0.85907900
    59  H          0.75300000       0.06890000       0.13020000
    60  H          0.24700000       0.93110000       0.86980000
    61  C          0.66929170       0.93482150       0.21629100
    62  C          0.33070830       0.06517850       0.78370900
    63  N          0.93470150       0.69651130       0.27654800
    64  N          0.06529850       0.30348870       0.72345200
    65  H          0.87580000       0.63530000       0.29310000
    66  H          0.12420000       0.36470000       0.70690000
    67  N          0.08535150       0.84712140       0.27610900
    68  N          0.91464850       0.15287860       0.72389100
    69  H          0.14020000       0.89960000       0.29250000
    70  H          0.85980000       0.10040000       0.70750000
    71  N          0.72286140       0.95552130       0.28622800
    72  N          0.27713860       0.04447870       0.71377200
    73  N          0.57988150       0.79119140       0.31099900
    74  N          0.42011850       0.20880860       0.68900100
    75  H          0.53160000       0.72880000       0.33690000
    76  H          0.46840000       0.27120000       0.66310000
    77  C          0.46437160       0.20168150       0.29690900
    78  C          0.53562840       0.79831850       0.70309100
    79  C          0.49709170       0.24146150       0.21723900
    80  C          0.50290830       0.75853850       0.78276100
    81  H          0.45730000       0.20030000       0.18070000
    82  H          0.54270000       0.79970000       0.81930000
    83  C          0.58961180       0.34311160       0.19206900
    84  C          0.41038820       0.65688840       0.80793100
    85  C          0.64414180       0.40664160       0.24701900
    86  C          0.35585820       0.59335840       0.75298100
    87  H          0.70390000       0.47560000       0.23000000
    88  H          0.29610000       0.52440000       0.77000000
    89  C          0.61089170       0.36895150       0.32672900
    90  C          0.38910830       0.63104850       0.67327100
    91  C          0.52217170       0.26558150       0.35086900
    92  C          0.47782830       0.73441850       0.64913100
    93  H          0.50090000       0.23840000       0.40420000
    94  H          0.49910000       0.76160000       0.59580000
    95  C          0.37076180       0.08932160       0.32472100
    96  C          0.62923820       0.91067840       0.67527900
    97  C          0.63622000       0.38696180       0.10842100
    98  C          0.36378000       0.61303820       0.89157900
    99  C          0.67101180       0.43956160       0.38498100
   100  C          0.32898820       0.56043840       0.61501900
   101  O          0.37661140       0.05198120       0.40002700
   102  O          0.62338860       0.94801880       0.59997300
   103  H          0.32450000      -0.00960000       0.41360000
   104  H          0.67550000       0.00960000       0.58640000
   105  O          0.30023130       0.03803120       0.28260700
   106  O          0.69976870       0.96196880       0.71739300
   107  O          0.57854150       0.32907130       0.05788700
   108  O          0.42145850       0.67092870       0.94211300
   109  H          0.61040000       0.35910000       0.01320000
   110  H          0.38960000       0.64090000       0.98680000
   111  O          0.72506170       0.47175140       0.08869700
   112  O          0.27493830       0.52824860       0.91130300
   113  O          0.74251140       0.53540120       0.36033700
   114  O          0.25748860       0.46459880       0.63966300
   115  O          0.64331140       0.39760110       0.45685700
   116  O          0.35668860       0.60239890       0.54314300
   117  C          0.18279170       0.44108160       0.18951900
   118  C          0.81720830       0.55891840       0.81048100
   119  C          0.08562180       0.34199160       0.21251100
   120  C          0.91437820       0.65800840       0.78748900
   121  H          0.04610000       0.30320000       0.17480000
   122  H          0.95390000       0.69680000       0.82520000
   123  C          0.04780170       0.30111150       0.29153900
   124  C          0.95219830       0.69888850       0.70846100
   125  C          0.10540170       0.36020150       0.34742900
   126  C          0.89459830       0.63979850       0.65257100
   127  H          0.07900000       0.33330000       0.40040000
   128  H          0.92100000       0.66670000       0.59960000
   129  C          0.20262170       0.45961150       0.32504900
   130  C          0.79737830       0.54038850       0.67495100
   131  C          0.23957170       0.49858150       0.24616100
   132  C          0.76042830       0.50141850       0.75383900
   133  H          0.30410000       0.56500000       0.23070000
   134  H          0.69590000       0.43500000       0.76930000
   135  C          0.23132000       0.48724170       0.10617100
   136  C          0.76868000       0.51275830       0.89382900
   137  C          0.94691820       0.19177160       0.31858100
   138  C          0.05308180       0.80822840       0.68141900
   139  C          0.27119170       0.52423160       0.38307100
   140  C          0.72880830       0.47576840       0.61692900
   141  O          0.16654160       0.43594140       0.05506700
   142  O          0.83345840       0.56405860       0.94493300
   143  H          0.19920000       0.46620000       0.01060000
   144  H          0.80080000       0.53380000       0.98940000
   145  O          0.32635140       0.56827130       0.08772700
   146  O          0.67364860       0.43172870       0.91227300
   147  O          0.34628140       0.61690120       0.36169700
   148  O          0.65371860       0.38309880       0.63830300
   149  O          0.24293140       0.47490110       0.45530700
   150  O          0.75706860       0.52509890       0.54469300
   151  H          0.28370000       0.51490000       0.48370000
   152  H          0.71630000       0.48510000       0.51630000
   153  O          0.91538840       0.15746130       0.38823700
   154  O          0.08461160       0.84253870       0.61176300
   155  O          0.90190870       0.14016120       0.26303700
   156  O          0.09809130       0.85983880       0.73696300
   157  H          0.84790000       0.08160000       0.28190000
   158  H          0.15210000       0.91840000       0.71810000
   159  O          0.27197150       0.84782130       0.47477800
   160  O          0.72802850       0.15217870       0.52522200
   161  H          0.20940000       0.85580000       0.51520000
   162  H          0.79060000       0.14420000       0.48480000
   163  H          0.31260000       0.77500000       0.48380000
   164  H          0.68740000       0.22500000       0.51620000
