data_VUZZIZ
_symmetry_space_group_name_H-M    'P1'
_symmetry_Int_Tables_number       1
loop_
_symmetry_equiv_pos_site_id
_symmetry_equiv_pos_as_xyz
1 x,y,z
_cell_length_a                   6.3552
_cell_length_b                   8.0142
_cell_length_c                   17.7143
_cell_angle_alpha                95.542
_cell_angle_beta                 92.742
_cell_angle_gamma                92.762
loop_
_atom_site_label
_atom_site_type_symbol
_atom_site_fract_x
_atom_site_fract_y
_atom_site_fract_z
     1  S          0.65322700       0.11591600       0.74875300
     2  S          0.34677300       0.88408400       0.25124700
     3  S          0.55069800       0.44132600       0.70483300
     4  S          0.44930200       0.55867400       0.29516700
     5  N          0.54213000       0.23792000       0.69218900
     6  N          0.45787000       0.76208000       0.30781100
     7  H          0.46560000       0.18040000       0.64520000
     8  H          0.53440000       0.81960000       0.35480000
     9  O          0.72282000       0.97864810       0.70008900
    10  O          0.27718000       0.02135190       0.29991100
    11  O          0.80022000       0.21126180       0.80158800
    12  O          0.19978000       0.78873820       0.19841200
    13  O          0.41183000       0.48702190       0.64478900
    14  O          0.58817000       0.51297810       0.35521100
    15  O          0.76412000       0.50984180       0.70973900
    16  O          0.23588000       0.49015820       0.29026100
    17  C          0.44363000       0.03782000       0.79906110
    18  C          0.55637000       0.96218000       0.20093890
    19  C          0.42203000       0.09763000       0.87367120
    20  C          0.57797000       0.90237000       0.12632880
    21  H          0.52440000       0.17600000       0.89940000
    22  H          0.47560000       0.82400000       0.10060000
    23  C          0.24814000       0.04193000       0.91090130
    24  C          0.75186000       0.95807000       0.08909870
    25  H          0.23000000       0.08050000       0.96250000
    26  H          0.77000000       0.91950000       0.03750000
    27  C          0.10463000       0.93047000       0.87160130
    28  C          0.89537000       0.06953000       0.12839870
    29  C          0.12303000       0.86697000       0.79786120
    30  C          0.87697000       0.13303000       0.20213880
    31  H          0.02010000       0.78800000       0.77290000
    32  H         -0.02010000       0.21200000       0.22710000
    33  C          0.29633000       0.92147000       0.76079120
    34  C          0.70367000       0.07853000       0.23920880
    35  H          0.31460000       0.87990000       0.70960000
    36  H          0.68540000       0.12010000       0.29040000
    37  F          0.93208000       0.87863810       0.90773900
    38  F          0.06792000       0.12136190       0.09226100
    39  C          0.44233000       0.49462000       0.79307110
    40  C          0.55767000       0.50538000       0.20692890
    41  C          0.56493000       0.59033000       0.84922120
    42  C          0.43507000       0.40967000       0.15077880
    43  H          0.70540000       0.62590000       0.84030000
    44  H          0.29460000       0.37410000       0.15970000
    45  C          0.48164000       0.63373000       0.91851130
    46  C          0.51836000       0.36627000       0.08148870
    47  H          0.56320000       0.69980000       0.95780000
    48  H          0.43680000       0.30020000       0.04220000
    49  C          0.27823000       0.57903000       0.92924120
    50  C          0.72177000       0.42097000       0.07075880
    51  C          0.15403000       0.48213000       0.87480130
    52  C          0.84597000       0.51787000       0.12519870
    53  H          0.01480000       0.44480000       0.88470000
    54  H         -0.01480000       0.55520000       0.11530000
    55  C          0.23663000       0.44022000       0.80532120
    56  C          0.76337000       0.55978000       0.19467880
    57  H          0.15360000       0.37480000       0.76610000
    58  H          0.84640000       0.62520000       0.23390000
    59  F          0.19702000       0.62411190      -0.00272200
    60  F          0.80298000       0.37588810       0.00272200
    61  O          0.35573000       0.06912000       0.57983100
    62  O          0.64427000       0.93088000       0.42016900
    63  N          0.21063000       0.15202000       0.54124100
    64  N          0.78937000       0.84798000       0.45875900
    65  C          0.03044000       0.18883000       0.57279120
    66  C          0.96956000       0.81117000       0.42720880
    67  H          0.00630000       0.16100000       0.62270000
    68  H         -0.00630000       0.83900000       0.37730000
    69  C          0.88066000       0.26623000       0.53353140
    70  C          0.11934000       0.73377000       0.46646860
    71  H          0.75220000       0.29310000       0.55600000
    72  H          0.24780000       0.70690000       0.44400000
    73  C          0.91626000       0.30543000       0.46087130
    74  C          0.08374000       0.69457000       0.53912870
    75  H          0.81290000       0.35910000       0.43270000
    76  H          0.18710000       0.64090000       0.56730000
    77  C          0.10464000       0.26543000       0.42988120
    78  C          0.89536000       0.73457000       0.57011880
    79  H          0.13270000       0.29180000       0.38010000
    80  H          0.86730000       0.70820000       0.61990000
    81  C          0.25083000       0.18743000       0.47134120
    82  C          0.74917000       0.81257000       0.52865880
    83  H          0.38050000       0.15860000       0.45030000
    84  H          0.61950000       0.84140000       0.54970000
