data_VUZZUL
_symmetry_space_group_name_H-M    'P1'
_symmetry_Int_Tables_number       1
loop_
_symmetry_equiv_pos_site_id
_symmetry_equiv_pos_as_xyz
1 x,y,z
_cell_length_a                   7.588819
_cell_length_b                   7.944818
_cell_length_c                   18.1654
_cell_angle_alpha                84.47418
_cell_angle_beta                 77.81019
_cell_angle_gamma                66.52218
loop_
_atom_site_label
_atom_site_type_symbol
_atom_site_fract_x
_atom_site_fract_y
_atom_site_fract_z
     1  N          0.58964000       0.79184000       0.66641150
     2  N          0.41036000       0.20816000       0.33358850
     3  H          0.63260000       0.71550000       0.63520000
     4  H          0.36740000       0.28450000       0.36480000
     5  S          0.75053120       0.77803100       0.71788400
     6  S          0.24946880       0.22196900       0.28211600
     7  S          0.34913120       0.86886100       0.69252400
     8  S          0.65086880       0.13113900       0.30747600
     9  O          0.93213000       0.71673000       0.66560130
    10  O          0.06787000       0.28327000       0.33439870
    11  O          0.68383000       0.94603000       0.75676130
    12  O          0.31617000       0.05397000       0.24323870
    13  O          0.28523000       0.86383000       0.62444130
    14  O          0.71477000       0.13617000       0.37555870
    15  O          0.28153000       0.03743000       0.73128140
    16  O          0.71847000       0.96257000       0.26871860
    17  C          0.75435000       0.60014000       0.78446170
    18  C          0.24565000       0.39986000       0.21553830
    19  C          0.69236000       0.63985000       0.86023190
    20  C          0.30764000       0.36015000       0.13976810
    21  H          0.64980000       0.76180000       0.87690000
    22  H          0.35020000       0.23820000       0.12310000
    23  C          0.69296000       0.49945000       0.91132000
    24  C          0.30704000       0.50055000       0.08868000
    25  H          0.65280000       0.52380000       0.96370000
    26  H          0.34720000       0.47620000       0.03630000
    27  C          0.75165000       0.32465000       0.88621190
    28  C          0.24835000       0.67535000       0.11378810
    29  C          0.81525000       0.28285000       0.81072000
    30  C          0.18475000       0.71715000       0.18928000
    31  H          0.85610000       0.16070000       0.79430000
    32  H          0.14390000       0.83930000       0.20570000
    33  C          0.81795000       0.42254000       0.75960190
    34  C          0.18205000       0.57746000       0.24039810
    35  H          0.86340000       0.39680000       0.70740000
    36  H          0.13660000       0.60320000       0.29260000
    37  Br         0.75267600       0.13178500       0.95657200
    38  Br         0.24732400       0.86821500       0.04342800
    39  C          0.30004000       0.70294000       0.75605160
    40  C          0.69996000       0.29706000       0.24394840
    41  C          0.21126000       0.75155000       0.83011190
    42  C          0.78874000       0.24845000       0.16988810
    43  H          0.17270000       0.87340000       0.84630000
    44  H          0.82730000       0.12660000       0.15370000
    45  C          0.18006000       0.61875000       0.87992000
    46  C          0.81994000       0.38125000       0.12008000
    47  H          0.11650000       0.64930000       0.93060000
    48  H          0.88350000       0.35070000       0.06940000
    49  C          0.24155000       0.44224000       0.85549180
    50  C          0.75845000       0.55776000       0.14450820
    51  C          0.32925000       0.39414000       0.78212000
    52  C          0.67075000       0.60586000       0.21788000
    53  H          0.37010000       0.27160000       0.76620000
    54  H          0.62990000       0.72840000       0.23380000
    55  C          0.35685000       0.52754000       0.73193190
    56  C          0.64315000       0.47246000       0.26806810
    57  H          0.41500000       0.49770000       0.68070000
    58  H          0.58500000       0.50230000       0.31930000
    59  Br         0.21401700       0.25724600       0.92548200
    60  Br         0.78598300       0.74275400       0.07451800
    61  C          0.75395000       0.43274000       0.52043170
    62  C          0.24605000       0.56726000       0.47956830
    63  N          0.76355000       0.53584000       0.45742170
    64  N          0.23645000       0.46416000       0.54257830
    65  H          0.81750000       0.47650000       0.42331900
    66  H          0.18250000       0.52350000       0.57668100
    67  N          0.78925000       0.25634000       0.51156180
    68  N          0.21075000       0.74366000       0.48843820
    69  H          0.79550000       0.22150000       0.47381700
    70  H          0.20450000       0.77850000       0.52618300
    71  O          0.71394000       0.49733000       0.58425120
    72  O          0.28606000       0.50267000       0.41574880
    73  C          0.74076000       0.72455000       0.46072000
    74  C          0.25924000       0.27545000       0.53928000
    75  H          0.75760000       0.77450000       0.40940000
    76  H          0.24240000       0.22550000       0.59060000
    77  H          0.83940000       0.73040000       0.48640000
    78  H          0.16060000       0.26960000       0.51360000
    79  H          0.60970000       0.79660000       0.48840000
    80  H          0.39030000       0.20340000       0.51160000
    81  C          0.77687000       0.13545000       0.57542000
    82  C          0.22313000       0.86455000       0.42458000
    83  H          0.80010000       0.01440000       0.55760000
    84  H          0.19990000      -0.01440000       0.44240000
    85  H          0.64630000       0.18650000       0.60710000
    86  H          0.35370000       0.81350000       0.39290000
    87  H          0.87570000       0.12320000       0.60490000
    88  H          0.12430000       0.87680000       0.39510000
