data_WABGEL
_symmetry_space_group_name_H-M    'P1'
_symmetry_Int_Tables_number       1
loop_
_symmetry_equiv_pos_site_id
_symmetry_equiv_pos_as_xyz
1 x,y,z
_cell_length_a                   9.1943
_cell_length_b                   12.3423
_cell_length_c                   7.4262
_cell_angle_alpha                90.0
_cell_angle_beta                 95.123
_cell_angle_gamma                90.0
loop_
_atom_site_label
_atom_site_type_symbol
_atom_site_fract_x
_atom_site_fract_y
_atom_site_fract_z
     1  S          0.78371000       0.92569000       0.44041000
     2  S          0.71629000       0.42569000       0.55959000
     3  S          0.21629000       0.07431000       0.55959000
     4  S          0.28371000       0.57431000       0.44041000
     5  S          0.88981000       0.15041000       0.40661000
     6  S          0.61019000       0.65041000       0.59339000
     7  S          0.11019000       0.84959000       0.59339000
     8  S          0.38981000       0.34959000       0.40661000
     9  C          0.93213000       0.01563000       0.46894000
    10  C          0.56787000       0.51563000       0.53106000
    11  C          0.06787000       0.98437000       0.53106000
    12  C          0.43213000       0.48437000       0.46894000
    13  C          0.66264000       0.02384000       0.34595000
    14  C          0.83736000       0.52384000       0.65405000
    15  C          0.33736000       0.97616000       0.65405000
    16  C          0.16264000       0.47616000       0.34595000
    17  C          0.71004000       0.12294000       0.32975000
    18  C          0.78996000       0.62294000       0.67025000
    19  C          0.28996000       0.87706000       0.67025000
    20  C          0.21004000       0.37706000       0.32975000
    21  H          0.57334300      -0.00083100       0.31195000
    22  H          0.92665700       0.49916900       0.68805000
    23  H          0.42665700       0.00083100       0.68805000
    24  H          0.07334300       0.50083100       0.31195000
    25  H          0.65184600       0.18333600       0.28295600
    26  H          0.84815400       0.68333600       0.71704400
    27  H          0.34815400       0.81666400       0.71704400
    28  H          0.15184600       0.31666400       0.28295600
    29  C          0.00923000       0.10873000       0.94656000
    30  C          0.49077000       0.60873000       0.05344000
    31  C         -0.00923000       0.89127000       0.05344000
    32  C          0.50923000       0.39127000       0.94656000
    33  C          0.13183000       0.05522000       0.02454000
    34  C          0.36817000       0.55522000       0.97546000
    35  C          0.86817000       0.94478000       0.97546000
    36  C          0.63183000       0.44478000       0.02454000
    37  C          0.27013000       0.11173000       0.05234000
    38  C          0.22987000       0.61173000       0.94766000
    39  C          0.72987000       0.88827000       0.94766000
    40  C          0.77013000       0.38827000       0.05234000
    41  C          0.87707000       0.05382000       0.92226000
    42  C          0.62293000       0.55382000       0.07774000
    43  C          0.12293000       0.94618000       0.07774000
    44  C          0.37707000       0.44618000       0.92226000
    45  C          0.74757000       0.10953000       0.84556000
    46  C          0.75243000       0.60953000       0.15444000
    47  C          0.25243000       0.89047000       0.15444000
    48  C          0.24757000       0.39047000       0.84556000
    49  N          0.37843000       0.15573000       0.07704000
    50  N          0.12157000       0.65573000       0.92296000
    51  N          0.62157000       0.84427000       0.92296000
    52  N          0.87843000       0.34427000       0.07704000
    53  N          0.64367000       0.15203000       0.78686000
    54  N          0.85633000       0.65203000       0.21314000
    55  N          0.35633000       0.84797000       0.21314000
    56  N          0.14367000       0.34797000       0.78686000
    57  H          0.01893900       0.18203000       0.91345300
    58  H          0.48106100       0.68203000       0.08654700
    59  H          0.98106100       0.81797000       0.08654700
    60  H          0.51893900       0.31797000       0.91345300
