data_WABHOA01
_symmetry_space_group_name_H-M    'P1'
_symmetry_Int_Tables_number       1
loop_
_symmetry_equiv_pos_site_id
_symmetry_equiv_pos_as_xyz
1 x,y,z
_cell_length_a                   11.93263
_cell_length_b                   15.25494
_cell_length_c                   16.00424
_cell_angle_alpha                89.1612
_cell_angle_beta                 70.5702
_cell_angle_gamma                69.6932
loop_
_atom_site_label
_atom_site_type_symbol
_atom_site_fract_x
_atom_site_fract_y
_atom_site_fract_z
     1  Cl         0.27010700       0.03617600       0.47625500
     2  Cl         0.72989300       0.96382400       0.52374500
     3  Cl         0.04085700       0.86859400       0.32904400
     4  Cl         0.95914300       0.13140600       0.67095600
     5  O          0.54769150       0.63809120       0.45530110
     6  O          0.45230850       0.36190880       0.54469890
     7  O          0.39288170       0.77845120       0.49498120
     8  O          0.60711830       0.22154880       0.50501880
     9  N          0.24761170       0.87299130       0.39003120
    10  N          0.75238830       0.12700870       0.60996880
    11  H          0.27020000       0.85701800       0.43591900
    12  H          0.72980000       0.14298200       0.56408100
    13  C          0.45152000       0.69995160       0.44888150
    14  C          0.54848000       0.30004840       0.55111850
    15  C          0.39982000       0.68009160       0.37950180
    16  C          0.60018000       0.31990840       0.62049820
    17  H          0.43984700       0.61361500       0.35777900
    18  H          0.56015300       0.38638500       0.64222100
    19  H          0.30887800       0.69429200       0.40744900
    20  H          0.69112200       0.30570800       0.59255100
    21  C          0.42242000       0.73629160       0.30155150
    22  C          0.57758000       0.26370840       0.69844850
    23  C          0.51973000       0.69502000       0.22128190
    24  C          0.48027000       0.30498000       0.77871810
    25  H          0.57199900       0.63232700       0.21617700
    26  H          0.42800100       0.36767300       0.78382300
    27  C          0.54073000       0.74503000       0.14869190
    28  C          0.45927000       0.25497000       0.85130810
    29  H          0.60691000       0.71606100       0.09551500
    30  H          0.39309000       0.28393900       0.90448500
    31  C          0.46393000       0.83733000       0.15507180
    32  C          0.53607000       0.16267000       0.84492820
    33  H          0.47782200       0.87088100       0.10608300
    34  H          0.52217800       0.12911900       0.89391700
    35  C          0.36612000       0.88053190       0.23406150
    36  C          0.63388000       0.11946810       0.76593850
    37  H          0.31377900       0.94301300       0.23789100
    38  H          0.68622100       0.05698700       0.76210900
    39  C          0.34504190       0.83120150       0.30808140
    40  C          0.65495810       0.16879850       0.69191860
    41  C          0.15340180       0.96092130       0.39650120
    42  C          0.84659820       0.03907870       0.60349880
    43  C          0.05212000       0.96977140       0.36754130
    44  C          0.94788000       0.03022860       0.63245870
    45  C          0.95888000       0.05522170       0.37112150
    46  C          0.04112000       0.94477830       0.62887850
    47  H          0.89381600       0.05896900       0.34995900
    48  H          0.10618400       0.94103100       0.65004100
    49  C          0.96348000       0.13480160       0.40639170
    50  C          0.03652000       0.86519840       0.59360830
    51  H          0.90128700       0.19294800       0.40868300
    52  H          0.09871300       0.80705200       0.59131700
    53  C          0.05852000       0.12961160       0.43825160
    54  C          0.94148000       0.87038840       0.56174840
    55  H          0.06031400       0.18372800       0.46289300
    56  H          0.93968600       0.81627200       0.53710700
    57  C          0.15172000       0.04324150       0.43346140
    58  C          0.84828000       0.95675850       0.56653860
    59  Cl         0.59527100       0.46225900       0.08812500
    60  Cl         0.40472900       0.53774100       0.91187500
    61  Cl         0.01912800       0.37247600       0.03205400
    62  Cl         0.98087200       0.62752400       0.96794600
    63  N          0.93382150       0.36818110       0.71047110
    64  N          0.06617850       0.63181890       0.28952890
    65  N          0.11147150       0.32219110       0.53681110
    66  N          0.88852850       0.67780890       0.46318890
    67  N          0.79064170       0.49790130       0.41976110
    68  N          0.20935830       0.50209870       0.58023890
    69  H          0.72120000       0.54721800       0.42841600
    70  H          0.27880000       0.45278200       0.57158400
    71  N          0.61817150       0.55383120       0.59362120
    72  N          0.38182850       0.44616880       0.40637880
    73  H          0.59720000       0.57731700       0.54941700
    74  H          0.40280000       0.42268300       0.45058300
    75  C          0.09992000       0.27456150       0.76677160
    76  C          0.90008000       0.72543850       0.23322840
    77  H          0.04247800       0.28736900       0.82503300
    78  H          0.95752200       0.71263100       0.17496700
    79  C          0.22622000       0.22018160       0.74816180
    80  C          0.77378000       0.77981840       0.25183820
    81  H          0.25392700       0.19672100       0.79465100
    82  H          0.74607300       0.80327900       0.20534900
    83  C          0.31342000       0.19943160       0.66155180
    84  C          0.68658000       0.80056840       0.33844820
    85  H          0.39839200       0.16265300       0.65075000
    86  H          0.60160800       0.83734700       0.34925000
    87  C          0.27472000       0.23286150       0.59206160
    88  C          0.72528000       0.76713850       0.40793840
    89  H          0.33332300       0.21815700       0.53412800
    90  H          0.66667700       0.78184300       0.46587200
    91  C          0.14634190       0.28952130       0.60799140
    92  C          0.85365810       0.71047870       0.39200860
    93  C          0.99189180       0.37627130       0.55236130
    94  C          0.00810820       0.62372870       0.44763870
    95  C          0.95299180       0.41051140       0.47931130
    96  C          0.04700820       0.58948860       0.52068870
    97  H          0.01337800       0.39364100       0.42201500
    98  H          0.98662200       0.60635900       0.57798500
    99  C          0.83114180       0.46690130       0.48977130
   100  C          0.16885820       0.53309870       0.51022870
   101  C          0.73687180       0.49732130       0.58075130
   102  C          0.26312820       0.50267870       0.41924870
   103  C          0.77392180       0.46360130       0.65329130
   104  C          0.22607820       0.53639870       0.34670870
   105  H          0.71450800       0.48226400       0.71083300
   106  H          0.28549200       0.51773600       0.28916700
   107  C          0.89603180       0.40363130       0.64108130
   108  C          0.10396820       0.59636870       0.35891870
   109  C          0.05918190       0.31048130       0.69620140
   110  C          0.94081810       0.68951870       0.30379860
   111  C          0.84338190       0.39371140       0.80111130
   112  C          0.15661810       0.60628860       0.19888870
   113  C          0.77762000       0.33682170       0.83935170
   114  C          0.22238000       0.66317830       0.16064830
   115  H          0.78476500       0.28444400       0.80602900
   116  H          0.21523500       0.71555600       0.19397100
   117  C          0.70043000       0.35862000       0.92841190
   118  C          0.29957000       0.64138000       0.07158810
   119  H          0.65592100       0.32049000       0.95590000
   120  H          0.34407900       0.67951000       0.04410000
   121  C          0.69023000       0.43682000       0.97550170
   122  C          0.30977000       0.56318000       0.02449830
   123  C          0.75223000       0.49482000       0.93743190
   124  C          0.24777000       0.50518000       0.06256810
   125  H          0.74255800       0.54821900       0.97050700
   126  H          0.25744200       0.45178100       0.02949300
   127  C          0.83002000       0.47322180       0.84886170
   128  C          0.16998000       0.52677820       0.15113830
   129  H          0.87313500       0.51224200       0.82162000
   130  H          0.12686500       0.48775800       0.17838000
   131  C          0.85181180       0.46490140       0.32881130
   132  C          0.14818820       0.53509860       0.67118870
   133  C          0.81952000       0.52699150       0.26863140
   134  C          0.18048000       0.47300850       0.73136860
   135  H          0.76384300       0.58857900       0.28977900
   136  H          0.23615700       0.41142100       0.71022100
   137  C          0.86872000       0.49864170       0.17802150
   138  C          0.13128000       0.50135830       0.82197850
   139  H          0.84573200       0.54070200       0.13864500
   140  H          0.15426800       0.45929800       0.86135500
   141  C          0.95192000       0.40781170       0.14643140
   142  C          0.04808000       0.59218830       0.85356860
   143  C          0.98322000       0.34447160       0.20467150
   144  C          0.01678000       0.65552840       0.79532850
   145  H          0.03759800       0.28269400       0.18300800
   146  H          0.96240200       0.71730600       0.81699200
   147  C          0.93372000       0.37266150       0.29525150
   148  C          0.06628000       0.62733850       0.70474850
   149  H          0.95537100       0.32963400       0.33426300
   150  H          0.04462900       0.67036600       0.66573700
   151  C          0.51683190       0.58886140       0.68153140
   152  C          0.48316810       0.41113860       0.31846860
   153  H          0.52446600       0.53753600       0.71931900
   154  H          0.47553400       0.46246400       0.28068100
   155  C          0.53163000       0.66916190       0.72542000
   156  C          0.46837000       0.33083810       0.27458000
   157  H          0.61264000       0.64762700       0.73360700
   158  H          0.38736000       0.35237300       0.26639300
   159  H          0.46451300       0.69155900       0.78234600
   160  H          0.53548700       0.30844100       0.21765400
   161  H          0.52717500       0.71931000       0.68826100
   162  H          0.47282500       0.28069000       0.31173900
   163  C          0.38882000       0.61682000       0.66946180
   164  C          0.61118000       0.38318000       0.33053820
   165  H          0.37573400       0.67158300       0.63817400
   166  H          0.62426600       0.32841700       0.36182600
   167  H          0.32233600       0.63064300       0.72681900
   168  H          0.67766400       0.36935700       0.27318100
   169  H          0.38723300       0.56603900       0.63572600
   170  H          0.61276700       0.43396100       0.36427400
   171  Cl         0.14272900       0.79843600       0.87770600
   172  Cl         0.85727100       0.20156400       0.12229400
   173  Cl         0.26428110       0.04265800       0.03710600
   174  Cl         0.73571890       0.95734200       0.96289400
   175  O          0.46385160       0.87105150       0.58688110
   176  O          0.53614840       0.12894850       0.41311890
   177  H          0.43240000       0.83330000       0.56030000
   178  H          0.56760000       0.16670000       0.43970000
   179  O          0.28355170       0.89955170       0.69974120
   180  O          0.71644830       0.10044830       0.30025880
   181  N          0.28522000       0.92369160       0.88071130
   182  N          0.71478000       0.07630840       0.11928870
   183  H          0.26230000       0.91920000       0.83720000
   184  H          0.73770000       0.08080000       0.16280000
   185  C          0.38502000       0.90936170       0.66665150
   186  C          0.61498000       0.09063830       0.33334850
   187  C          0.43442000       0.96229160       0.71529160
   188  C          0.56558000       0.03770840       0.28470840
   189  H          0.36468000       0.01828300       0.74972700
   190  H          0.63532000       0.98171700       0.25027300
   191  H          0.49746500       0.98215900       0.67219400
   192  H          0.50253500       0.01784100       0.32780600
   193  C          0.49362000       0.90360150       0.77680150
   194  C          0.50638000       0.09639850       0.22319850
   195  C          0.62503000       0.86512000       0.75312000
   196  C          0.37497000       0.13488000       0.24688000
   197  H          0.67612300       0.87454200       0.69824700
   198  H          0.32387700       0.12545800       0.30175300
   199  C          0.68103000       0.81333000       0.80882000
   200  C          0.31897000       0.18667000       0.19118000
   201  H          0.76938500       0.78779200       0.79156700
   202  H          0.23061500       0.21220800       0.20843300
   203  C          0.60703000       0.79922000       0.88942000
   204  C          0.39297000       0.20078000       0.11058000
   205  H          0.64532100       0.76513100       0.92765000
   206  H          0.35467900       0.23486900       0.07235000
   207  C          0.47593000       0.83522000       0.91490180
   208  C          0.52407000       0.16478000       0.08509820
   209  H          0.42623100       0.82449300       0.96973000
   210  H          0.57376900       0.17550700       0.03027000
   211  C          0.41822000       0.88721160       0.85876150
   212  C          0.58178000       0.11278840       0.14123850
   213  C          0.19882000       0.91948180       0.96367150
   214  C          0.80118000       0.08051820       0.03632850
   215  C          0.12203000       0.86682190       0.97168180
   216  C          0.87797000       0.13317810       0.02831820
   217  C          0.02743000       0.86772000       0.05022000
   218  C          0.97257000       0.13228000       0.94978000
   219  H          0.97590800       0.83330300       0.05201800
   220  H          0.02409200       0.16669700       0.94798200
   221  C          0.01033000       0.91913000       0.12432000
   222  C          0.98967000       0.08087000       0.87568000
   223  H          0.94767900       0.91905900       0.17767700
   224  H          0.05232100       0.08094100       0.82232300
   225  C          0.08403000       0.97143000       0.12194180
   226  C          0.91597000       0.02857000       0.87805820
   227  H          0.07196000       0.00622700       0.17352600
   228  H          0.92804000      -0.00622700       0.82647400
   229  C          0.17793000       0.97222000       0.04109180
   230  C          0.82207000       0.02778000       0.95890820
