data_WADPAU
_symmetry_space_group_name_H-M    'P1'
_symmetry_Int_Tables_number       1
loop_
_symmetry_equiv_pos_site_id
_symmetry_equiv_pos_as_xyz
1 x,y,z
_cell_length_a                   7.73884
_cell_length_b                   34.237719
_cell_length_c                   13.07397
_cell_angle_alpha                90.0
_cell_angle_beta                 106.50601
_cell_angle_gamma                90.0
loop_
_atom_site_label
_atom_site_type_symbol
_atom_site_fract_x
_atom_site_fract_y
_atom_site_fract_z
     1  I          0.89589400       0.63359910       0.26091300
     2  I          0.10410600       0.13359910       0.23908700
     3  I          0.10410600       0.36640090       0.73908700
     4  I          0.89589400       0.86640090       0.76091300
     5  I          0.17486600       0.71360210       0.08490400
     6  I          0.82513400       0.21360210       0.41509600
     7  I          0.82513400       0.28639790       0.91509600
     8  I          0.17486600       0.78639790       0.58490400
     9  I          0.22245500       0.53780790       0.07851300
    10  I          0.77754500       0.03780790       0.42148700
    11  I          0.77754500       0.46219210       0.92148700
    12  I          0.22245500       0.96219210       0.57851300
    13  O          0.68725000       0.54473900       0.27752000
    14  O          0.31275000       0.04473900       0.22248000
    15  O          0.31275000       0.45526100       0.72248000
    16  O          0.68725000       0.95526100       0.77752000
    17  O          0.68235000       0.54041100       0.10703000
    18  O          0.31765000       0.04041100       0.39297000
    19  O          0.31765000       0.45958900       0.89297000
    20  O          0.68235000       0.95958900       0.60703000
    21  O          0.66896000       0.71617110       0.11483000
    22  O          0.33104000       0.21617110       0.38517000
    23  O          0.33104000       0.28382890       0.88517000
    24  O          0.66896000       0.78382890       0.61483000
    25  H          0.72412000       0.73761400       0.13070000
    26  H          0.27588000       0.23761400       0.36930000
    27  H          0.27588000       0.26238600       0.86930000
    28  H          0.72412000       0.76238600       0.63070000
    29  O          0.61937000       0.72189110       0.27383000
    30  O          0.38063000       0.22189110       0.22617000
    31  O          0.38063000       0.27810890       0.72617000
    32  O          0.61937000       0.77810890       0.77383000
    33  N          0.06536000       0.62476120       0.02564000
    34  N          0.93464000       0.12476120       0.47436000
    35  N          0.93464000       0.37523880       0.97436000
    36  N          0.06536000       0.87523880       0.52564000
    37  H          0.00470000       0.60299000       0.01840000
    38  H         -0.00470000       0.10299000       0.48160000
    39  H         -0.00470000       0.39701000       0.98160000
    40  H          0.00470000       0.89701000       0.51840000
    41  H         -0.00170000       0.64551100       0.02950000
    42  H          0.00170000       0.14551100       0.47050000
    43  H          0.00170000       0.35448900       0.97050000
    44  H         -0.00170000       0.85448900       0.52950000
    45  C          0.64216000       0.55702120       0.18153000
    46  C          0.35784000       0.05702120       0.31847000
    47  C          0.35784000       0.44297880       0.81847000
    48  C          0.64216000       0.94297880       0.68153000
    49  C          0.53266000       0.59425120       0.16003000
    50  C          0.46734000       0.09425120       0.33997000
    51  C          0.46734000       0.40574880       0.83997000
    52  C          0.53266000       0.90574880       0.66003000
    53  C          0.61556000       0.63055120       0.18803000
    54  C          0.38444000       0.13055120       0.31197000
    55  C          0.38444000       0.36944880       0.81197000
    56  C          0.61556000       0.86944880       0.68803000
    57  C          0.51516000       0.66494120       0.16773000
    58  C          0.48484000       0.16494120       0.33227000
    59  C          0.48484000       0.33505880       0.83227000
    60  C          0.51516000       0.83505880       0.66773000
    61  C          0.33066000       0.66243120       0.11714000
    62  C          0.66934000       0.16243120       0.38286000
    63  C          0.66934000       0.33756880       0.88286000
    64  C          0.33066000       0.83756880       0.61714000
    65  C          0.24316000       0.62650120       0.08463000
    66  C          0.75684000       0.12650120       0.41537000
    67  C          0.75684000       0.37349880       0.91537000
    68  C          0.24316000       0.87349880       0.58463000
    69  C          0.35006000       0.59272120       0.11113000
    70  C          0.64994000       0.09272120       0.38887000
    71  C          0.64994000       0.40727880       0.88887000
    72  C          0.35006000       0.90727880       0.61113000
    73  C          0.60707000       0.70421130       0.19254000
    74  C          0.39293000       0.20421130       0.30746000
    75  C          0.39293000       0.29578870       0.80746000
    76  C          0.60707000       0.79578870       0.69254000
    77  I          0.63572400       0.52165180       0.65077200
    78  I          0.36427600       0.02165180       0.84922800
    79  I          0.36427600       0.47834820       0.34922800
    80  I          0.63572400       0.97834820       0.15077200
    81  I          0.57056600       0.66653210       0.90690300
    82  I          0.42943400       0.16653210       0.59309700
    83  I          0.42943400       0.33346790       0.09309700
    84  I          0.57056600       0.83346790       0.40690300
    85  I          0.36084500       0.67237410       0.42509300
    86  I          0.63915500       0.17237410       0.07490700
    87  I          0.63915500       0.32762590       0.57490700
    88  I          0.36084500       0.82762590       0.92509300
    89  O          0.64135000       0.58392110       0.43533000
    90  O          0.35865000       0.08392110       0.06467000
    91  O          0.35865000       0.41607890       0.56467000
    92  O          0.64135000       0.91607890       0.93533000
    93  H          0.62880000       0.57201600       0.37730000
    94  H          0.37120000       0.07201600       0.12270000
    95  H          0.37120000       0.42798400       0.62270000
    96  H          0.62880000       0.92798400       0.87730000
    97  O          0.35055000       0.56703110       0.40663000
    98  O          0.64945000       0.06703110       0.09337000
    99  O          0.64945000       0.43296890       0.59337000
   100  O          0.35055000       0.93296890       0.90663000
   101  O          0.53325000       0.56640120       0.90823000
   102  O          0.46675000       0.06640120       0.59177000
   103  O          0.46675000       0.43359880       0.09177000
   104  O          0.53325000       0.93359880       0.40823000
   105  H          0.57590000       0.55701900       0.97020000
   106  H          0.42410000       0.05701900       0.52980000
   107  H          0.42410000       0.44298100       0.02980000
   108  H          0.57590000       0.94298100       0.47020000
   109  O          0.81145000       0.56830130       0.89263000
   110  O          0.18855000       0.06830130       0.60737000
   111  O          0.18855000       0.43169870       0.10737000
   112  O          0.81145000       0.93169870       0.39263000
   113  N          0.41857000       0.69823120       0.66874000
   114  N          0.58143000       0.19823120       0.83126000
   115  N          0.58143000       0.30176880       0.33126000
   116  N          0.41857000       0.80176880       0.16874000
   117  H          0.46180000       0.71061600       0.73030000
   118  H          0.53820000       0.21061600       0.76970000
   119  H          0.53820000       0.28938400       0.26970000
   120  H          0.46180000       0.78938400       0.23030000
   121  H          0.41280000       0.71431400       0.61530000
   122  H          0.58720000       0.21431400       0.88470000
   123  H          0.58720000       0.28568600       0.38470000
   124  H          0.41280000       0.78568600       0.11530000
   125  C          0.65526000       0.57584130       0.86043000
   126  C          0.34474000       0.07584130       0.63957000
   127  C          0.34474000       0.42415870       0.13957000
   128  C          0.65526000       0.92415870       0.36043000
   129  C          0.57926000       0.59878130       0.75733000
   130  C          0.42074000       0.09878130       0.74267000
   131  C          0.42074000       0.40121870       0.24267000
   132  C          0.57926000       0.90121870       0.25733000
   133  C          0.53217000       0.63773130       0.75943000
   134  C          0.46783000       0.13773130       0.74057000
   135  C          0.46783000       0.36226870       0.24057000
   136  C          0.53217000       0.86226870       0.25943000
   137  C          0.46886000       0.66010130       0.66624000
   138  C          0.53114000       0.16010130       0.83376000
   139  C          0.53114000       0.33989870       0.33376000
   140  C          0.46886000       0.83989870       0.16624000
   141  C          0.45326000       0.64080130       0.56873000
   142  C          0.54674000       0.14080130       0.93127000
   143  C          0.54674000       0.35919870       0.43127000
   144  C          0.45326000       0.85919870       0.06873000
   145  C          0.50276000       0.60201120       0.56473000
   146  C          0.49724000       0.10201120       0.93527000
   147  C          0.49724000       0.39798880       0.43527000
   148  C          0.50276000       0.89798880       0.06473000
   149  C          0.56776000       0.58054120       0.65963000
   150  C          0.43224000       0.08054120       0.84037000
   151  C          0.43224000       0.41945880       0.34037000
   152  C          0.56776000       0.91945880       0.15963000
   153  C          0.48856000       0.58222130       0.45913000
   154  C          0.51144000       0.08222130       0.04087000
   155  C          0.51144000       0.41777870       0.54087000
   156  C          0.48856000       0.91777870       0.95913000
   157  N          0.82845000       0.47376120       0.31343000
   158  N          0.17155000       0.97376120       0.18657000
   159  N          0.17155000       0.52623880       0.68657000
   160  N          0.82845000       0.02623880       0.81343000
   161  H          0.78780000       0.49767000       0.29950000
   162  H          0.21220000      -0.00233000       0.20050000
   163  H          0.21220000       0.50233000       0.70050000
   164  H          0.78780000       0.00233000       0.79950000
   165  N          0.15356000       0.28111120       0.35784000
   166  N          0.84644000       0.78111120       0.14216000
   167  N          0.84644000       0.71888880       0.64216000
   168  N          0.15356000       0.21888880       0.85784000
   169  C          0.86157000       0.45571140       0.40594000
   170  C          0.13843000       0.95571140       0.09406000
   171  C          0.13843000       0.54428860       0.59406000
   172  C          0.86157000       0.04428860       0.90594000
   173  H          0.84340000       0.46890000       0.46410000
   174  H          0.15660000       0.96890000       0.03590000
   175  H          0.15660000       0.53110000       0.53590000
   176  H          0.84340000       0.03110000       0.96410000
   177  C          0.92217000       0.41776140       0.41844000
   178  C          0.07783000       0.91776140       0.08156000
   179  C          0.07783000       0.58223860       0.58156000
   180  C          0.92217000       0.08223860       0.91844000
   181  H          0.94610000       0.40560000       0.48460000
   182  H          0.05390000       0.90560000       0.01540000
   183  H          0.05390000       0.59440000       0.51540000
   184  H          0.94610000       0.09440000       0.98460000
   185  C          0.94716000       0.39770120       0.33064000
   186  C          0.05284000       0.89770120       0.16936000
   187  C          0.05284000       0.60229880       0.66936000
   188  C          0.94716000       0.10229880       0.83064000
   189  C          0.91037000       0.41793140       0.23414000
   190  C          0.08963000       0.91793140       0.26586000
   191  C          0.08963000       0.58206860       0.76586000
   192  C          0.91037000       0.08206860       0.73414000
   193  H          0.92570000       0.40570000       0.17370000
   194  H          0.07430000       0.90570000       0.32630000
   195  H          0.07430000       0.59430000       0.82630000
   196  H          0.92570000       0.09430000       0.67370000
   197  C          0.85147000       0.45584150       0.22864000
   198  C          0.14853000       0.95584150       0.27136000
   199  C          0.14853000       0.54415850       0.77136000
   200  C          0.85147000       0.04415850       0.72864000
   201  H          0.82710000       0.46920000       0.16410000
   202  H          0.17290000       0.96920000       0.33590000
   203  H          0.17290000       0.53080000       0.83590000
   204  H          0.82710000       0.03080000       0.66410000
   205  C          0.15727000       0.30185140       0.44404000
   206  C          0.84273000       0.80185140       0.05596000
   207  C          0.84273000       0.69814860       0.55596000
   208  C          0.15727000       0.19814860       0.94404000
   209  H          0.20630000       0.29070000       0.51090000
   210  H          0.79370000       0.79070000      -0.01090000
   211  H          0.79370000       0.70930000       0.48910000
   212  H          0.20630000       0.20930000       0.01090000
   213  C          0.09057000       0.33952140       0.43774000
   214  C          0.90943000       0.83952140       0.06226000
   215  C          0.90943000       0.66047860       0.56226000
   216  C          0.09057000       0.16047860       0.93774000
   217  H          0.09550000       0.35320000       0.49990000
   218  H          0.90450000       0.85320000       0.00010000
   219  H          0.90450000       0.64680000       0.50010000
   220  H          0.09550000       0.14680000      -0.00010000
   221  C          0.01636000       0.35702130       0.33984000
   222  C         -0.01636000       0.85702130       0.16016000
   223  C         -0.01636000       0.64297870       0.66016000
   224  C          0.01636000       0.14297870       0.83984000
   225  C          0.00879000       0.33460160       0.25035000
   226  C         -0.00879000       0.83460160       0.24965000
   227  C         -0.00879000       0.66539840       0.74965000
   228  C          0.00879000       0.16539840       0.75035000
   229  H          0.95640000       0.34460000       0.18230000
   230  H          0.04360000       0.84460000       0.31770000
   231  H          0.04360000       0.65540000       0.81770000
   232  H          0.95640000       0.15540000       0.68230000
   233  C          0.08049000       0.29694160       0.26325000
   234  C          0.91951000       0.79694160       0.23675000
   235  C          0.91951000       0.70305840       0.73675000
   236  C          0.08049000       0.20305840       0.76325000
   237  H          0.07660000       0.28230000       0.20260000
   238  H          0.92340000       0.78230000       0.29740000
   239  H          0.92340000       0.71770000       0.79740000
   240  H          0.07660000       0.21770000       0.70260000
