data_WAFFUG
_symmetry_space_group_name_H-M    'P1'
_symmetry_Int_Tables_number       1
loop_
_symmetry_equiv_pos_site_id
_symmetry_equiv_pos_as_xyz
1 x,y,z
_cell_length_a                   9.36843
_cell_length_b                   10.30443
_cell_length_c                   18.22645
_cell_angle_alpha                90.0
_cell_angle_beta                 106.4942
_cell_angle_gamma                90.0
loop_
_atom_site_label
_atom_site_type_symbol
_atom_site_fract_x
_atom_site_fract_y
_atom_site_fract_z
     1  S          0.58161500       0.38154400       0.14705200
     2  S          0.41838500       0.88154400       0.35294800
     3  S          0.41838500       0.61845600       0.85294800
     4  S          0.58161500       0.11845600       0.64705200
     5  O          0.80222160       0.58013130      -0.00541800
     6  O          0.19777840       0.08013130       0.50541800
     7  O          0.19777840       0.41986870       0.00541800
     8  O          0.80222160       0.91986870       0.49458200
     9  H          0.83720000       0.65391700       0.01431200
    10  H          0.16280000       0.15391700       0.48568800
    11  H          0.16280000       0.34608300       0.98568800
    12  H          0.83720000       0.84608300       0.51431200
    13  O          0.72352160       0.57771120       0.09792700
    14  O          0.27647840       0.07771120       0.40207300
    15  O          0.27647840       0.42228880       0.90207300
    16  O          0.72352160       0.92228880       0.59792700
    17  O          0.70285160       0.13228120       0.22294900
    18  O          0.29714840       0.63228120       0.27705100
    19  O          0.29714840       0.86771880       0.77705100
    20  O          0.70285160       0.36771880       0.72294900
    21  H          0.74020000       0.05531700       0.23081300
    22  H          0.25980000       0.55531700       0.26918700
    23  H          0.25980000       0.94468300       0.76918700
    24  H          0.74020000       0.44468300       0.73081300
    25  O          0.49171150       0.02161130       0.18621800
    26  O          0.50828850       0.52161130       0.31378200
    27  O          0.50828850       0.97838870       0.81378200
    28  O          0.49171150       0.47838870       0.68621800
    29  N          0.52552130       0.21214120       0.03258700
    30  N          0.47447870       0.71214120       0.46741300
    31  N          0.47447870       0.78785880       0.96741300
    32  N          0.52552130       0.28785880       0.53258700
    33  C          0.58945150       0.32661140       0.05633700
    34  C          0.41054850       0.82661140       0.44366300
    35  C          0.41054850       0.67338860       0.94366300
    36  C          0.58945150       0.17338860       0.55633700
    37  C          0.65886150       0.40173130       0.01174800
    38  C          0.34113850       0.90173130       0.48825200
    39  C          0.34113850       0.59826870       0.98825200
    40  C          0.65886150       0.09826870       0.51174800
    41  C          0.65803170       0.35450150       0.94059100
    42  C          0.34196830       0.85450150       0.55940900
    43  C          0.34196830       0.64549850       0.05940900
    44  C          0.65803170       0.14549850       0.44059100
    45  H          0.70200000       0.40220000       0.90950000
    46  H          0.29800000       0.90220000       0.59050000
    47  H          0.29800000       0.59780000       0.09050000
    48  H          0.70200000       0.09780000       0.40950000
    49  C          0.59198170       0.23668160       0.91573200
    50  C          0.40801830       0.73668160       0.58426800
    51  C          0.40801830       0.76331840       0.08426800
    52  C          0.59198170       0.26331840       0.41573200
    53  H          0.59060000       0.20350000       0.86810000
    54  H          0.40940000       0.70350000       0.63190000
    55  H          0.40940000       0.79650000       0.13190000
    56  H          0.59060000       0.29650000       0.36810000
    57  C          0.52829170       0.17006150       0.96359100
    58  C          0.47170830       0.67006150       0.53640900
    59  C          0.47170830       0.82993850       0.03640900
    60  C          0.52829170       0.32993850       0.46359100
    61  H          0.48420000       0.09040000       0.94700000
    62  H          0.51580000       0.59040000       0.55300000
    63  H          0.51580000       0.90960000       0.05300000
    64  H          0.48420000       0.40960000       0.44700000
    65  C          0.73076160       0.52758140       0.03952800
    66  C          0.26923840       0.02758140       0.46047200
    67  C          0.26923840       0.47241860       0.96047200
    68  C          0.73076160       0.97241860       0.53952800
    69  C          0.48104170       0.25100160       0.17466800
    70  C          0.51895830       0.75100160       0.32533200
    71  C          0.51895830       0.74899840       0.82533200
    72  C          0.48104170       0.24899840       0.67466800
    73  H          0.45080000       0.27940000       0.21870000
    74  H          0.54920000       0.77940000       0.28130000
    75  H          0.54920000       0.72060000       0.78130000
    76  H          0.45080000       0.22060000       0.71870000
    77  H          0.39090000       0.23670000       0.13330000
    78  H          0.60910000       0.73670000       0.36670000
    79  H          0.60910000       0.76330000       0.86670000
    80  H          0.39090000       0.26330000       0.63330000
    81  C          0.55882000       0.12241150       0.19413900
    82  C          0.44118000       0.62241150       0.30586100
    83  C          0.44118000       0.87758850       0.80586100
    84  C          0.55882000       0.37758850       0.69413900
    85  N          0.91367810       0.80702850       0.05293100
    86  N          0.08632190       0.30702850       0.44706900
    87  N          0.08632190       0.19297150       0.94706900
    88  N          0.91367810       0.69297150       0.55293100
    89  N          0.16287170       0.40694140       0.23065900
    90  N          0.83712830       0.90694140       0.26934100
    91  N          0.83712830       0.59305860       0.76934100
    92  N          0.16287170       0.09305860       0.73065900
    93  C          0.03532000       0.81602820       0.11218130
    94  C          0.96468000       0.31602820       0.38781870
    95  C          0.96468000       0.18397180       0.88781870
    96  C          0.03532000       0.68397180       0.61218130
    97  H          0.08840000       0.74050000       0.12960000
    98  H          0.91160000       0.24050000       0.37040000
    99  H          0.91160000       0.25950000       0.87040000
   100  H          0.08840000       0.75950000       0.62960000
   101  C          0.83738000       0.91548000       0.03031120
   102  C          0.16262000       0.41548000       0.46968880
   103  C          0.16262000       0.08452000       0.96968880
   104  C          0.83738000       0.58452000       0.53031120
   105  H          0.75180000       0.91120000       0.98920000
   106  H          0.24820000       0.41120000       0.51080000
   107  H          0.24820000       0.08880000       0.01080000
   108  H          0.75180000       0.58880000       0.48920000
   109  C          0.08680190       0.92987830       0.14907100
   110  C          0.91319810       0.42987830       0.35092900
   111  C          0.91319810       0.07012170       0.85092900
   112  C          0.08680190       0.57012170       0.64907100
   113  H          0.17390000       0.93100000       0.18930000
   114  H          0.82610000       0.43100000       0.31070000
   115  H          0.82610000       0.06900000       0.81070000
   116  H          0.17390000       0.56900000       0.68930000
   117  C          0.87880830       0.03452180       0.06467900
   118  C          0.12119170       0.53452180       0.43532100
   119  C          0.12119170       0.96547820       0.93532100
   120  C          0.87880830       0.46547820       0.56467900
   121  H          0.82130000       0.10790000       0.04720000
   122  H          0.17870000       0.60790000       0.45280000
   123  H          0.17870000       0.89210000       0.95280000
   124  H          0.82130000       0.39210000       0.54720000
   125  C          0.00740160       0.04348150       0.12563900
   126  C         -0.00740160       0.54348150       0.37436100
   127  C         -0.00740160       0.95651850       0.87436100
   128  C          0.00740160       0.45651850       0.62563900
   129  C          0.05830160       0.16981150       0.16269800
   130  C          0.94169840       0.66981150       0.33730200
   131  C          0.94169840       0.83018850       0.83730200
   132  C          0.05830160       0.33018850       0.66269800
   133  C          0.14430190       0.17679160       0.23814900
   134  C          0.85569810       0.67679160       0.26185100
   135  C          0.85569810       0.82320840       0.76185100
   136  C          0.14430190       0.32320840       0.73814900
   137  H          0.16830000       0.10180000       0.26750000
   138  H          0.83170000       0.60180000       0.23250000
   139  H          0.83170000       0.89820000       0.73250000
   140  H          0.16830000       0.39820000       0.76750000
   141  C          0.02397180       0.28557160       0.12271100
   142  C          0.97602820       0.78557160       0.37728900
   143  C          0.97602820       0.71442840       0.87728900
   144  C          0.02397180       0.21442840       0.62271100
   145  H          0.96480000       0.28590000       0.07220000
   146  H          0.03520000       0.78590000       0.42780000
   147  H          0.03520000       0.71410000       0.92780000
   148  H          0.96480000       0.21410000       0.57220000
   149  C          0.07882000       0.39998170       0.15887110
   150  C          0.92118000       0.89998170       0.34112890
   151  C          0.92118000       0.60001830       0.84112890
   152  C          0.07882000       0.10001830       0.65887110
   153  H          0.05540000       0.47680000       0.13130000
   154  H          0.94460000       0.97680000       0.36870000
   155  H          0.94460000       0.52320000       0.86870000
   156  H          0.05540000       0.02320000       0.63130000
   157  C          0.19387190       0.29589190       0.26931900
   158  C          0.80612810       0.79589190       0.23068100
   159  C          0.80612810       0.70410810       0.73068100
   160  C          0.19387190       0.20410810       0.76931900
   161  H          0.25200000       0.29900000       0.32000000
   162  H          0.74800000       0.79900000       0.18000000
   163  H          0.74800000       0.70100000       0.68000000
   164  H          0.25200000       0.20100000       0.82000000
