data_WAKKIG
_symmetry_space_group_name_H-M    'P1'
_symmetry_Int_Tables_number       1
loop_
_symmetry_equiv_pos_site_id
_symmetry_equiv_pos_as_xyz
1 x,y,z
_cell_length_a                   6.97602
_cell_length_b                   11.23452
_cell_length_c                   26.33055
_cell_angle_alpha                80.0822
_cell_angle_beta                 85.9932
_cell_angle_gamma                80.2582
loop_
_atom_site_label
_atom_site_type_symbol
_atom_site_fract_x
_atom_site_fract_y
_atom_site_fract_z
     1  Br         0.33865300       0.83770200       0.25181200
     2  Br         0.66134700       0.16229800       0.74818800
     3  O          0.78998190       0.58771120       0.25269500
     4  O          0.21001810       0.41228880       0.74730500
     5  N          0.86292000       0.66636140       0.27631600
     6  N          0.13708000       0.33363860       0.72368400
     7  C          0.03243000       0.70231170       0.25749700
     8  C          0.96757000       0.29768830       0.74250300
     9  C          0.10173000       0.78906170       0.27940700
    10  C          0.89827000       0.21093830       0.72059300
    11  C          0.00083000       0.83945190       0.31958800
    12  C         -0.00083000       0.16054810       0.68041200
    13  C          0.76303000       0.70939190       0.31693700
    14  C          0.23697000       0.29060810       0.68306300
    15  C          0.82973000       0.79692000       0.33884800
    16  C          0.17027000       0.20308000       0.66115200
    17  H          0.09540000       0.66930000       0.22931100
    18  H          0.90460000       0.33070000       0.77068900
    19  H          0.04640000       0.89530000       0.33591100
    20  H          0.95360000       0.10470000       0.66408900
    21  H          0.65740000       0.67530000       0.32691100
    22  H          0.34260000       0.32470000       0.67308900
    23  H          0.76040000       0.82230000       0.36671100
    24  H          0.23960000       0.17770000       0.63328900
    25  Br         0.75140700       0.20496200       0.24127200
    26  Br         0.24859300       0.79503800       0.75872800
    27  O          0.25092000       0.48205130       0.16990500
    28  O          0.74908000       0.51794870       0.83009500
    29  N          0.21042000       0.36788150       0.17697600
    30  N          0.78958000       0.63211850       0.82302400
    31  C         -0.00943000       0.23076180       0.20676700
    32  C          0.00943000       0.76923820       0.79323300
    33  C          0.11163000       0.13699180       0.18659700
    34  C          0.88837000       0.86300820       0.81340300
    35  C          0.04113000       0.34571170       0.20188700
    36  C          0.95887000       0.65428830       0.79811300
    37  C          0.33573000       0.27796190       0.15909700
    38  C          0.66427000       0.72203810       0.84090300
    39  C          0.28703000       0.16228190       0.16339800
    40  C          0.71297000       0.83771810       0.83660200
    41  H          0.07540000       0.05830000       0.19011000
    42  H          0.92460000       0.94170000       0.80989000
    43  H          0.96460000       0.41030000       0.21521100
    44  H          0.03540000       0.58970000       0.78478900
    45  H          0.45340000       0.30230000       0.14241100
    46  H          0.54660000       0.69770000       0.85758900
    47  H          0.37440000       0.10230000       0.15031100
    48  H          0.62560000       0.89770000       0.84968900
    49  S          0.74871700       0.90709400       0.98896800
    50  S          0.25128300       0.09290600       0.01103200
    51  S          0.73364600       0.92233400       0.18843200
    52  S          0.26635400       0.07766600       0.81156800
    53  S          0.72728700       0.50204400       0.12255200
    54  S          0.27271300       0.49795600       0.87744800
    55  N          0.74142000       0.71428140       0.06225600
    56  N          0.25858000       0.28571860       0.93774400
    57  N          0.74212000       0.71678140       0.14980600
    58  N          0.25788000       0.28321860       0.85019400
    59  N          0.73832000       0.89605140       0.09092600
    60  N          0.26168000       0.10394860       0.90907400
    61  C          0.73842000       0.84135160       0.14172700
    62  C          0.26158000       0.15864840       0.85827300
    63  C          0.73732000       0.64975160       0.11138700
    64  C          0.26268000       0.35024840       0.88861300
    65  C          0.74222000       0.83773160       0.04976700
    66  C          0.25778000       0.16226840       0.95023300
    67  H          0.74740000       0.67730000       0.03801200
    68  H          0.25260000       0.32270000       0.96198800
    69  H          0.74340000       0.68030000       0.18201200
    70  H          0.25660000       0.31970000       0.81798800
    71  H          0.74040000       0.96830000       0.08601100
    72  H          0.25960000       0.03170000       0.91398900
    73  S          0.23706700       0.81674400       0.91642800
    74  S          0.76293300       0.18325600       0.08357200
    75  S          0.24659700       0.80359400       0.11865200
    76  S          0.75340300       0.19640600       0.88134800
    77  S          0.23520700       0.39906400       0.04261200
    78  S          0.76479300       0.60093600       0.95738800
    79  N          0.25052000       0.79289140       0.01875600
    80  N          0.74948000       0.20710860       0.98124400
    81  N          0.24112000       0.60952140       0.07429600
    82  N          0.75888000       0.39047860       0.92570400
    83  N          0.24022000       0.61766140       0.98584400
    84  N          0.75978000       0.38233860       0.01415600
    85  C          0.24363000       0.74071160       0.97594300
    86  C          0.75637000       0.25928840       0.02405700
    87  C          0.23972000       0.54831160       0.03394700
    88  C          0.76028000       0.45168840       0.96605300
    89  C          0.24602000       0.73249160       0.06890700
    90  C          0.75398000       0.26750840       0.93109300
    91  H          0.24940000       0.86630000       0.01461100
    92  H          0.75060000       0.13370000       0.98538900
    93  H          0.24140000       0.56130000       0.10661100
    94  H          0.75860000       0.43870000       0.89338900
    95  H          0.23840000       0.58230000       0.96018900
    96  H          0.76160000       0.41770000       0.03981100
    97  S          0.21121700       0.16942400       0.50325200
    98  S          0.78878300       0.83057600       0.49674800
    99  S          0.33461700       0.15671400       0.30386200
   100  S          0.66538300       0.84328600       0.69613800
   101  S          0.31973700       0.57117400       0.37603200
   102  S          0.68026300       0.42882600       0.62396800
   103  N          0.33702000       0.35570150       0.34618600
   104  N          0.66298000       0.64429850       0.65381400
   105  N          0.26472000       0.36086150       0.43304600
   106  N          0.73528000       0.63913850       0.56695400
   107  N          0.27792000       0.18118150       0.40182600
   108  N          0.72208000       0.81881850       0.59817400
   109  C          0.30663000       0.42341170       0.38502700
   110  C          0.69337000       0.57658830       0.61497300
   111  C          0.31663000       0.23504170       0.35182700
   112  C          0.68337000       0.76495830       0.64817300
   113  C          0.25333000       0.23910170       0.44358700
   114  C          0.74667000       0.76089830       0.55641300
   115  H          0.36040000       0.39330000       0.31621200
   116  H          0.63960000       0.60670000       0.68378800
   117  H          0.24540000       0.40130000       0.46001100
   118  H          0.75460000       0.59870000       0.53998900
   119  H          0.27640000       0.10630000       0.40591100
   120  H          0.72360000       0.89370000       0.59408900
   121  S          0.65900700       0.12172400       0.58871200
   122  S          0.34099300       0.87827600       0.41128800
   123  S          0.77041700       0.52210400       0.45900200
   124  S          0.22958300       0.47789600       0.54099800
   125  S          0.80494700       0.10377400       0.39012200
   126  S          0.19505300       0.89622600       0.60987800
   127  N          0.70992000       0.31313150       0.51799600
   128  N          0.29008000       0.68686850       0.48200400
   129  N          0.73072000       0.13057150       0.48800600
   130  N          0.26928000       0.86942850       0.51199400
   131  N          0.77302000       0.30662150       0.43105600
   132  N          0.22698000       0.69337850       0.56894400
   133  C          0.70203000       0.19049170       0.52926700
   134  C          0.29797000       0.80950830       0.47073300
   135  C          0.74983000       0.37493170       0.46986700
   136  C          0.25017000       0.62506830       0.53013300
   137  C          0.76873000       0.18300170       0.43801700
   138  C          0.23127000       0.81699830       0.56198300
   139  H          0.69840000       0.35430000       0.54341100
   140  H          0.30160000       0.64570000       0.45658900
   141  H          0.73440000       0.05330000       0.49281100
   142  H          0.26560000       0.94670000       0.50718900
   143  H          0.79540000       0.34130000       0.39881200
   144  H          0.20460000       0.65870000       0.60118800
   145  O          0.87192000       0.38290140       0.33052500
   146  O          0.12808000       0.61709860       0.66947500
   147  H          0.83640000       0.44330000       0.30591200
   148  H          0.16360000       0.55670000       0.69408800
   149  H          0.86040000       0.32530000       0.32101200
   150  H          0.13960000       0.67470000       0.67898800
   151  O          0.42882000       0.49271140       0.25661500
   152  O          0.57118000       0.50728860       0.74338500
   153  H          0.38940000       0.49430000       0.22851300
   154  H          0.61060000       0.50570000       0.77148700
   155  H          0.52250000       0.53030000       0.25511200
   156  H          0.47750000       0.46970000       0.74488800
