data_WANDOF
_symmetry_space_group_name_H-M    'P1'
_symmetry_Int_Tables_number       1
loop_
_symmetry_equiv_pos_site_id
_symmetry_equiv_pos_as_xyz
1 x,y,z
_cell_length_a                   7.7792
_cell_length_b                   11.5693
_cell_length_c                   12.5404
_cell_angle_alpha                101.4785
_cell_angle_beta                 102.9535
_cell_angle_gamma                90.1685
loop_
_atom_site_label
_atom_site_type_symbol
_atom_site_fract_x
_atom_site_fract_y
_atom_site_fract_z
     1  O          0.57703000       0.31547180       0.45689190
     2  O          0.42297000       0.68452820       0.54310810
     3  O          0.80023000       0.24246180       0.55455190
     4  O          0.19977000       0.75753820       0.44544810
     5  O          0.51593000       0.46322000       0.34562000
     6  O          0.48407000       0.53678000       0.65438000
     7  H          0.53360000       0.40690000       0.39360000
     8  H          0.46640000       0.59310000       0.60640000
     9  O          0.65173000       0.60961180       0.30910170
    10  O          0.34827000       0.39038820       0.69089830
    11  C          0.73874000       0.31802000       0.50262000
    12  C          0.26126000       0.68198000       0.49738000
    13  C          0.86463000       0.41542000       0.49502000
    14  C          0.13537000       0.58458000       0.50498000
    15  C          0.82673000       0.50692000       0.43570190
    16  C          0.17327000       0.49308000       0.56429810
    17  C          0.65463000       0.52882000       0.35862000
    18  C          0.34537000       0.47118000       0.64138000
    19  C          0.03573000       0.41232000       0.55687190
    20  C          0.96427000       0.58768000       0.44312810
    21  H          0.06050000       0.35190000       0.59630000
    22  H          0.93950000       0.64810000       0.40370000
    23  O          0.07632000       0.29736140       0.95948150
    24  O          0.92368000       0.70263860       0.04051850
    25  H          0.05670000       0.36850000       0.92930000
    26  H          0.94330000       0.63150000       0.07070000
    27  O          0.82822000       0.22382160       0.83911170
    28  O          0.17178000       0.77617840       0.16088830
    29  O          0.31822000       0.13887170       0.89018150
    30  O          0.68178000       0.86112830       0.10981850
    31  H          0.39210000       0.19090000       0.89340000
    32  H          0.60790000       0.80910000       0.10660000
    33  O          0.43683000       0.15612000       0.07171180
    34  O          0.56317000       0.84388000       0.92828820
    35  C          0.95853000       0.21482000       0.91202000
    36  C          0.04147000       0.78518000       0.08798000
    37  C         -0.01547000       0.10279190       0.95569190
    38  C          0.01547000       0.89720810       0.04430810
    39  C          0.83613000       0.03872000       0.96042000
    40  C          0.16387000       0.96128000       0.03958000
    41  H          0.72480000       0.06470000       0.93340000
    42  H          0.27520000       0.93530000       0.06660000
    43  C          0.15153000       0.06282190      -0.00396810
    44  C          0.84847000       0.93717810       0.00396810
    45  C          0.31793000       0.12542000      -0.00848000
    46  C          0.68207000       0.87458000       0.00848000
    47  O          0.21145190       0.83535130       0.73871130
    48  O          0.78854810       0.16464870       0.26128870
    49  N          0.54683000       0.12203170       0.60449170
    50  N          0.45317000       0.87796830       0.39550830
    51  H          0.63640000       0.16240000       0.58380000
    52  H          0.36360000       0.83760000       0.41620000
    53  N         -0.00473000       0.93465190       0.66108190
    54  N          0.00473000       0.06534810       0.33891810
    55  N          0.92257000       0.84367190       0.69862190
    56  N          0.07743000       0.15632810       0.30137810
    57  N          0.04793000       0.47974170       0.87245180
    58  N          0.95207000       0.52025830       0.12754820
    59  C          0.37743000       0.14412000       0.57152000
    60  C          0.62257000       0.85588000       0.42848000
    61  H          0.34600000       0.20170000       0.52940000
    62  H          0.65400000       0.79830000       0.47060000
    63  C          0.24943000       0.08232000       0.59922000
    64  C          0.75057000       0.91768000       0.40078000
    65  H          0.13110000       0.09870000       0.57780000
    66  H          0.86890000       0.90130000       0.42220000
    67  C          0.29883000      -0.00500810       0.65957190
    68  C          0.70117000       0.00500810       0.34042810
    69  C          0.47653000       0.97332000       0.69192000
    70  C          0.52347000       0.02668000       0.30808000
    71  H          0.51180000       0.91460000       0.73190000
    72  H          0.48820000       0.08540000       0.26810000
    73  C          0.59853000       0.03962000       0.66392000
    74  C          0.40147000       0.96038000       0.33608000
    75  H          0.71810000       0.02730000       0.68640000
    76  H          0.28190000       0.97270000       0.31360000
    77  C          0.16353000       0.92542000       0.68572190
    78  C          0.83647000       0.07458000       0.31427810
    79  C          0.05393000       0.78792000       0.74270190
    80  C          0.94607000       0.21208000       0.25729810
    81  C          0.05253000       0.68302000       0.79106190
    82  C          0.94747000       0.31698000       0.20893810
    83  C          0.89647000       0.61542000       0.77022000
    84  C          0.10353000       0.38458000       0.22978000
    85  H          0.79180000       0.63820000       0.72910000
    86  H          0.20820000       0.36180000       0.27090000
    87  C          0.90076000       0.51382000       0.81192000
    88  C          0.09924000       0.48618000       0.18808000
    89  H          0.79720000       0.46730000       0.79730000
    90  H          0.20280000       0.53270000       0.20270000
    91  C          0.19673000       0.54632000       0.89362000
    92  C          0.80327000       0.45368000       0.10638000
    93  H          0.29870000       0.52280000       0.93690000
    94  H          0.70130000       0.47720000       0.06310000
    95  C          0.20543000       0.64812000       0.85422000
    96  C          0.79457000       0.35188000       0.14578000
    97  H          0.31130000       0.69240000       0.86960000
    98  H          0.68870000       0.30760000       0.13040000
    99  O          0.48302000       0.68892180       0.12601170
   100  O          0.51698000       0.31107820       0.87398830
   101  H          0.52630000       0.65910000       0.18420000
   102  H          0.47370000       0.34090000       0.81580000
   103  H          0.37930000       0.70790000       0.14080000
   104  H          0.62070000       0.29210000       0.85920000
