data_WANNUV01
_symmetry_space_group_name_H-M    'P1'
_symmetry_Int_Tables_number       1
loop_
_symmetry_equiv_pos_site_id
_symmetry_equiv_pos_as_xyz
1 x,y,z
_cell_length_a                   5.0253
_cell_length_b                   7.6764
_cell_length_c                   13.9318
_cell_angle_alpha                74.0679
_cell_angle_beta                 89.44811
_cell_angle_gamma                75.6878
loop_
_atom_site_label
_atom_site_type_symbol
_atom_site_fract_x
_atom_site_fract_y
_atom_site_fract_z
     1  I          0.25022180       0.29428110       0.15051700
     2  I          0.74977820       0.70571890       0.84948300
     3  C          0.03730000       0.05501800       0.02579000
     4  C          0.96270000       0.94498200       0.97421000
     5  C          0.11230000       0.15001900       0.07129000
     6  C          0.88770000       0.84998100       0.92871000
     7  N          0.48380000       0.49701400       0.25059000
     8  N          0.51620000       0.50298600       0.74941000
     9  C          0.66880000       0.76401600       0.20379000
    10  C          0.33120000       0.23598400       0.79621000
    11  H          0.69440000       0.86610000       0.15340000
    12  H          0.30560000       0.13390000       0.84660000
    13  C          0.72080000       0.58171800       0.37059000
    14  C          0.27920000       0.41828200       0.62941000
    15  H          0.78290000       0.55710000       0.43670000
    16  H          0.21710000       0.44290000       0.56330000
    17  C          0.58270000       0.46911800       0.34411000
    18  C          0.41730000       0.53088200       0.65589000
    19  H          0.55640000       0.36670000       0.39350000
    20  H          0.44360000       0.63330000       0.60650000
    21  C          0.76680000       0.73211700       0.29899000
    22  C          0.23320000       0.26788300       0.70101000
    23  C          0.92780000       0.86520000       0.31799000
    24  C          0.07220000       0.13480000       0.68201000
    25  H          0.12350000       0.80600000       0.32060000
    26  H          0.87650000       0.19400000       0.67940000
    27  H          0.88870000       0.97780000       0.26210000
    28  H          0.11130000       0.02220000       0.73790000
    29  C          0.53070000       0.64141900       0.18221000
    30  C          0.46930000       0.35858100       0.81779000
    31  H          0.46750000       0.66280000       0.11640000
    32  H          0.53250000       0.33720000       0.88360000
    33  N          0.86498300       0.91661300       0.40927000
    34  N          0.13501700       0.08338700       0.59073000
    35  H          0.70650000       0.91640000       0.43300000
    36  H          0.29350000       0.08360000       0.56700000
    37  C          0.05220000       0.96461500       0.45648000
    38  C          0.94780000       0.03538500       0.54352000
    39  O          0.29201500       0.95161300       0.43396000
    40  O          0.70798500       0.04838700       0.56604000
