data_WAPVES
_symmetry_space_group_name_H-M    'P1'
_symmetry_Int_Tables_number       1
loop_
_symmetry_equiv_pos_site_id
_symmetry_equiv_pos_as_xyz
1 x,y,z
_cell_length_a                   8.78208
_cell_length_b                   9.76229
_cell_length_c                   18.779618
_cell_angle_alpha                90.0
_cell_angle_beta                 101.3043
_cell_angle_gamma                90.0
loop_
_atom_site_label
_atom_site_type_symbol
_atom_site_fract_x
_atom_site_fract_y
_atom_site_fract_z
     1  I          0.87858200       0.33129200       0.85331200
     2  I          0.62141800       0.83129200       0.64668800
     3  I          0.12141800       0.66870800       0.14668800
     4  I          0.37858200       0.16870800       0.35331200
     5  C          0.33994000       0.25274000       0.54312000
     6  C          0.16006000       0.75274000       0.95688000
     7  C          0.66006000       0.74726000       0.45688000
     8  C          0.83994000       0.24726000       0.04312000
     9  H          0.27918500       0.20200400       0.50620200
    10  H          0.22081500       0.70200400      -0.00620200
    11  H          0.72081500       0.79799600       0.49379800
    12  H          0.77918500       0.29799600       0.00620200
    13  C          0.44435000       0.18864000       0.59703000
    14  C          0.05565000       0.68864000       0.90297000
    15  C          0.55565000       0.81136000       0.40297000
    16  C          0.94435000       0.31136000       0.09703000
    17  H          0.45407000       0.09374400       0.59636100
    18  H          0.04593000       0.59374400       0.90363900
    19  H          0.54593000       0.90625600       0.40363900
    20  H          0.95407000       0.40625600       0.09636100
    21  C          0.53344000       0.26194000       0.65102000
    22  C          0.96656000       0.76194000       0.84898000
    23  C          0.46656000       0.73806000       0.34898000
    24  C          0.03344000       0.23806000       0.15102000
    25  H          0.60380200       0.21708000       0.68695200
    26  H          0.89619800       0.71708000       0.81304800
    27  H          0.39619800       0.78292000       0.31304800
    28  H          0.10380200       0.28292000       0.18695200
    29  C          0.51984000       0.40424000       0.65286190
    30  C          0.98016000       0.90424000       0.84713810
    31  C          0.48016000       0.59576000       0.34713810
    32  C          0.01984000       0.09576000       0.15286190
    33  C          0.41313000       0.46473000       0.59694180
    34  C          0.08687000       0.96473000       0.90305820
    35  C          0.58687000       0.53527000       0.40305820
    36  C          0.91313000       0.03527000       0.09694180
    37  H          0.40158500       0.55942600       0.59595300
    38  H          0.09841500       0.05942600       0.90404700
    39  H          0.59841500       0.44057400       0.40404700
    40  H          0.90158500       0.94057400       0.09595300
    41  C          0.21374000       0.45794000       0.48767180
    42  C          0.28626000       0.95794000       0.01232820
    43  C          0.78626000       0.54206000       0.51232820
    44  C          0.71374000       0.04206000       0.98767180
    45  H          0.16117100       0.39075000       0.45435300
    46  H          0.33882900       0.89075000       0.04564700
    47  H          0.83882900       0.60925000       0.54564700
    48  H          0.66117100       0.10925000       0.95435300
    49  H          0.13931100       0.50635700       0.50941500
    50  H          0.36068900       0.00635700       0.99058500
    51  H          0.86068900       0.49364300       0.49058500
    52  H          0.63931100      -0.00635700       0.00941500
    53  H          0.26682900       0.52146400       0.46204900
    54  H          0.23317100       0.02146400       0.03795100
    55  H          0.73317100       0.47853600       0.53795100
    56  H          0.76682900       0.97853600       0.96204900
    57  N          0.32723000       0.38923000       0.54483130
    58  N          0.17277000       0.88923000       0.95516870
    59  N          0.67277000       0.61077000       0.45516870
    60  N          0.82723000       0.11077000       0.04483130
    61  N          0.59886000       0.48165000       0.70713000
    62  N          0.90114000       0.98165000       0.79287000
    63  N          0.40114000       0.51835000       0.29287000
    64  N          0.09886000       0.01835000       0.20713000
    65  H          0.60750000       0.56920000       0.70630000
    66  H          0.89250000       0.06920000       0.79370000
    67  H          0.39250000       0.43080000       0.29370000
    68  H          0.10750000       0.93080000       0.20630000
    69  H          0.66840000       0.44540000       0.73920000
    70  H          0.83160000       0.94540000       0.76080000
    71  H          0.33160000       0.55460000       0.26080000
    72  H          0.16840000       0.05460000       0.23920000
    73  C          0.11787000       0.82115000       0.59814000
    74  C          0.38213000       0.32115000       0.90186000
    75  C          0.88213000       0.17885000       0.40186000
    76  C          0.61787000       0.67885000       0.09814000
    77  C          0.15417000       0.84755000       0.52685000
    78  C          0.34583000       0.34755000       0.97315000
    79  C          0.84583000       0.15245000       0.47315000
    80  C          0.65417000       0.65245000       0.02685000
    81  H          0.15751000       0.94545300       0.51858000
    82  H          0.34249000       0.44545300       0.98142000
    83  H          0.84249000       0.05454700       0.48142000
    84  H          0.65751000       0.55454700       0.01858000
    85  H          0.25512500       0.80951400       0.52452400
    86  H          0.24487500       0.30951400       0.97547600
    87  H          0.74487500       0.19048600       0.47547600
    88  H          0.75512500       0.69048600       0.02452400
    89  C          0.07867000       0.80195000       0.40314000
    90  C          0.42133000       0.30195000       0.09686000
    91  C          0.92133000       0.19805000       0.59686000
    92  C          0.57867000       0.69805000       0.90314000
    93  H          0.18273400       0.76808300       0.40371400
    94  H          0.31726600       0.26808300       0.09628600
    95  H          0.81726600       0.23191700       0.59628600
    96  H          0.68273400       0.73191700       0.90371400
    97  H          0.07558100       0.89775700       0.38935300
    98  H          0.42441900       0.39775700       0.11064700
    99  H          0.92441900       0.10224300       0.61064700
   100  H          0.57558100       0.60224300       0.88935300
   101  C          0.96547000       0.72338000       0.34803000
   102  C          0.53453000       0.22338000       0.15197000
   103  C          0.03453000       0.27662000       0.65197000
   104  C          0.46547000       0.77662000       0.84803000
   105  H          0.86028600       0.75151500       0.34982700
   106  H          0.63971400       0.25151500       0.15017300
   107  H          0.13971400       0.24848500       0.65017300
   108  H          0.36028600       0.74848500       0.84982700
   109  H         -0.01615900       0.74222700       0.29975100
   110  H          0.51615900       0.24222700       0.20024900
   111  H          0.01615900       0.25777300       0.70024900
   112  H          0.48384100       0.75777300       0.79975100
   113  C          0.89275000       0.50508000       0.30552000
   114  C          0.60725000       0.00508000       0.19448000
   115  C          0.10725000       0.49492000       0.69448000
   116  C          0.39275000      -0.00508000       0.80552000
   117  H          0.92231500       0.52658500       0.25963100
   118  H          0.57768500       0.02658500       0.24036900
   119  H          0.07768500       0.47341500       0.74036900
   120  H          0.42231500       0.97341500       0.75963100
   121  H          0.78328700       0.52610100       0.30092600
   122  H          0.71671300       0.02610100       0.19907400
   123  H          0.21671300       0.47389900       0.69907400
   124  H          0.28328700       0.97389900       0.80092600
   125  C          0.91826000       0.35617000       0.32123000
   126  C          0.58174000       0.85617000       0.17877000
   127  C          0.08174000       0.64383000       0.67877000
   128  C          0.41826000       0.14383000       0.82123000
   129  H          0.86252700       0.30245800       0.28092000
   130  H          0.63747300       0.80245800       0.21908000
   131  H          0.13747300       0.69754200       0.71908000
   132  H          0.36252700       0.19754200       0.78092000
   133  H          0.02786700       0.33486200       0.32726400
   134  H          0.47213300       0.83486200       0.17273600
   135  H          0.97213300       0.66513800       0.67273600
   136  H          0.52786700       0.16513800       0.82726400
   137  O          0.04433000       0.78963000       0.47512000
   138  O          0.45567000       0.28963000       0.02488000
   139  O          0.95567000       0.21037000       0.52488000
   140  O          0.54433000       0.71037000       0.97512000
   141  O         -0.01816000       0.58794000       0.36204170
   142  O          0.51816000       0.08794000       0.13795830
   143  O          0.01816000       0.41206000       0.63795830
   144  O          0.48184000       0.91206000       0.86204170
   145  O          0.86654000       0.32343000       0.38332000
   146  O          0.63346000       0.82343000       0.11668000
   147  O          0.13346000       0.67657000       0.61668000
   148  O          0.36654000       0.17657000       0.88332000
   149  H          0.17250000       0.87950000       0.62530000
   150  H          0.32750000       0.37950000       0.87470000
   151  H          0.82750000       0.12050000       0.37470000
   152  H          0.67250000       0.62050000       0.12530000
   153  H          0.02330000       0.83550000       0.60240000
   154  H          0.47670000       0.33550000       0.89760000
   155  H          0.97670000       0.16450000       0.39760000
   156  H          0.52330000       0.66450000       0.10240000
   157  H          0.82850000       0.12150000       0.37530000
   158  H          0.67150000       0.62150000       0.12470000
   159  H          0.17150000       0.87850000       0.62470000
   160  H          0.32850000       0.37850000       0.87530000
   161  H          0.97730000       0.16550000       0.39840000
   162  H          0.52270000       0.66550000       0.10160000
   163  H          0.02270000       0.83450000       0.60160000
   164  H          0.47730000       0.33450000       0.89840000
