data_WAQNOV
_symmetry_space_group_name_H-M    'P1'
_symmetry_Int_Tables_number       1
loop_
_symmetry_equiv_pos_site_id
_symmetry_equiv_pos_as_xyz
1 x,y,z
_cell_length_a                   7.66142
_cell_length_b                   14.53104
_cell_length_c                   15.90624
_cell_angle_alpha                112.3002
_cell_angle_beta                 91.6032
_cell_angle_gamma                91.4922
loop_
_atom_site_label
_atom_site_type_symbol
_atom_site_fract_x
_atom_site_fract_y
_atom_site_fract_z
     1  N          0.69487900       0.34893500       0.04090500
     2  N          0.30512100       0.65106500       0.95909500
     3  C          0.66588120       0.36558700       0.96221400
     4  C          0.33411880       0.63441300       0.03778600
     5  C          0.70318120       0.45583700       0.95989400
     6  C          0.29681880       0.54416300       0.04010600
     7  C          0.77567110       0.53446700       0.03783600
     8  C          0.22432890       0.46553300       0.96216400
     9  C          0.81625130       0.63043800       0.04022700
    10  C          0.18374870       0.36956200       0.95977300
    11  C          0.88398150       0.70252800       0.11872800
    12  C          0.11601850       0.29747200       0.88127200
    13  C          0.91501140       0.68259800       0.19774700
    14  C          0.08498860       0.31740200       0.80225300
    15  C          0.87649130       0.59080700       0.19808600
    16  C          0.12350870       0.40919300       0.80191400
    17  C          0.80529110       0.51505600       0.11787600
    18  C          0.19470890       0.48494400       0.88212400
    19  C          0.75972110       0.42068700       0.11605600
    20  C          0.24027890       0.57931300       0.88394400
    21  C          0.66057130       0.24682700       0.03973800
    22  C          0.33942870       0.75317300       0.96026200
    23  C          0.81853120       0.18479600       0.00793600
    24  C          0.18146880       0.81520400      -0.00793600
    25  C          0.97236140       0.20554800       0.06095700
    26  C          0.02763860       0.79445200       0.93904300
    27  C          0.11906140       0.15088800       0.02965800
    28  C          0.88093860       0.84911200       0.97034200
    29  C          0.11550130       0.07341700       0.94526300
    30  C          0.88449870       0.92658300       0.05473700
    31  C          0.95987140       0.05157700       0.89354300
    32  C          0.04012860       0.94842300       0.10645700
    33  C          0.81291130       0.10649700       0.92433300
    34  C          0.18708870       0.89350300       0.07566700
    35  C          0.27578180       0.01552110       0.91032880
    36  C          0.72421820       0.98447890       0.08967120
    37  H          0.77421400       0.40418000       0.17028000
    38  H          0.22578600       0.59582000       0.82972000
    39  H          0.61501500       0.30869000       0.91252000
    40  H          0.38498500       0.69131000       0.08748000
    41  H          0.79421600       0.64319000       0.98361000
    42  H          0.20578400       0.35681000       0.01639000
    43  H          0.67871500       0.46529000       0.90302000
    44  H          0.32128500       0.53471000       0.09698000
    45  H          0.95861700       0.73821000       0.25409000
    46  H          0.04138300       0.26179000       0.74591000
    47  H          0.89431600       0.57649000       0.25418000
    48  H          0.10568400       0.42351000       0.74582000
    49  H          0.63441700       0.25549000       0.10069000
    50  H          0.36558300       0.74451000       0.89931000
    51  H          0.55161800       0.21801000      -0.00229000
    52  H          0.44838200       0.78199000       0.00229000
    53  H          0.97631700       0.25951000       0.12229000
    54  H          0.02368300       0.74049000       0.87771000
    55  H          0.95421700      -0.00561000       0.83371000
    56  H          0.04578300       0.00561000       0.16629000
    57  H          0.70101600       0.09269000       0.88832000
    58  H          0.29898400       0.90731000       0.11168000
    59  H          0.91121600       0.77001000       0.12138000
    60  H          0.08878400       0.22999000       0.87862000
    61  H          0.23221800       0.16571000       0.06779000
    62  H          0.76778200       0.83429000       0.93221000
    63  H          0.34320000       0.04331200       0.87328900
    64  H          0.65680000       0.95668800       0.12671100
    65  H          0.24220000       0.94488500       0.87738700
    66  H          0.75780000       0.05511500       0.12261300
    67  H          0.35630000       0.01191600       0.95778500
    68  H          0.64370000      -0.01191600       0.04221500
    69  N          0.37318110       0.38751700       0.16691500
    70  N          0.62681890       0.61248300       0.83308500
    71  N          0.90857900       0.42921700       0.32110600
    72  N          0.09142100       0.57078300       0.67889400
    73  N          0.96662100       0.31043700       0.58326600
    74  N          0.03337900       0.68956300       0.41673400
    75  N          0.52557110       0.36423700       0.75341500
    76  N          0.47442890       0.63576300       0.24658500
    77  C          0.33846100       0.39085600       0.38907500
    78  C          0.66153900       0.60914400       0.61092500
    79  C          0.52036100       0.37269600       0.38026600
    80  C          0.47963900       0.62730400       0.61973400
    81  C          0.61803100       0.36115600       0.44826600
    82  C          0.38196900       0.63884400       0.55173400
    83  C          0.54204100       0.36852500       0.53130500
    84  C          0.45795900       0.63147500       0.46869500
    85  C          0.36001100       0.38673600       0.54022500
    86  C          0.63998900       0.61326400       0.45977500
    87  C          0.26174110       0.39724600       0.47158500
    88  C          0.73825890       0.60275400       0.52841500
    89  C          0.23892100       0.40231600       0.31766500
    90  C          0.76107900       0.59768400       0.68233500
    91  C          0.31416110       0.39425600       0.23471600
    92  C          0.68583890       0.60574400       0.76528400
    93  C          0.05664110       0.41731600       0.32153600
    94  C          0.94335890       0.58268400       0.67846400
    95  C          0.64376100       0.35669600       0.60139500
    96  C          0.35623900       0.64330400       0.39860500
    97  C          0.82269110       0.33222600       0.59066500
    98  C          0.17730890       0.66777400       0.40933500
    99  C          0.57525110       0.36208600       0.68517600
   100  C          0.42474890       0.63791400       0.31482400
   101  H          0.74421500       0.34718000       0.43927000
   102  H          0.25578500       0.65282000       0.56073000
   103  H          0.30211400       0.39148000       0.59768000
   104  H          0.69788600       0.60852000       0.40232000
   105  H          0.13761400       0.40948000       0.48037000
   106  H          0.86238600       0.59052000       0.51963000
   107  H          0.57661500       0.36918000       0.32488000
   108  H          0.42338500       0.63082000       0.67512000
   109  N          0.43864120       0.14621700       0.19052600
   110  N          0.56135880       0.85378300       0.80947400
   111  N          0.96279890       0.18193700       0.33867600
   112  N          0.03720110       0.81806300       0.66132400
   113  N         -0.01245880       0.06378700       0.62190700
   114  N          0.01245880       0.93621300       0.37809300
   115  N          0.51362140       0.13181800       0.77667600
   116  N          0.48637860       0.86818200       0.22332400
   117  C          0.38571100       0.14220600       0.40864500
   118  C          0.61428900       0.85779400       0.59135500
   119  C          0.56886110       0.12067600       0.40261600
   120  C          0.43113890       0.87932400       0.59738400
   121  C          0.65788110       0.10893600       0.47243600
   122  C          0.34211890       0.89106400       0.52756400
   123  C          0.57302110       0.12003600       0.55518600
   124  C          0.42697890       0.87996400       0.44481400
   125  C          0.39044110       0.14207600       0.56129600
   126  C          0.60955890       0.85792400       0.43870400
   127  C          0.30024110       0.15242600       0.49120600
   128  C          0.69975890       0.84757400       0.50879400
   129  C          0.29365110       0.15313600       0.33694600
   130  C          0.70634890       0.84686400       0.66305400
   131  C          0.37574110       0.14818700       0.25571600
   132  C          0.62425890       0.85181300       0.74428400
   133  C          0.11026110       0.16995700       0.33913600
   134  C          0.88973890       0.83004300       0.66086400
   135  C          0.66334120       0.10897600       0.62749600
   136  C          0.33665880       0.89102400       0.37250400
   137  C          0.84374120       0.08436700       0.62369600
   138  C          0.15625880       0.91563300       0.37630400
   139  C          0.58017130       0.12162700       0.71020700
   140  C          0.41982870       0.87837300       0.28979300
   141  H          0.32701500       0.14909000       0.61728000
   142  H          0.67298500       0.85091000       0.38272000
   143  H          0.17761500       0.16868000       0.49627000
   144  H          0.82238500       0.83132000       0.50373000
   145  H          0.78051500       0.09318000       0.46707000
   146  H          0.21948500       0.90682000       0.53293000
   147  H          0.63201500       0.11568000       0.34708000
   148  H          0.36798500       0.88432000       0.65292000
