data_WARNUB
_symmetry_space_group_name_H-M    'P1'
_symmetry_Int_Tables_number       1
loop_
_symmetry_equiv_pos_site_id
_symmetry_equiv_pos_as_xyz
1 x,y,z
_cell_length_a                   14.874215
_cell_length_b                   5.93056
_cell_length_c                   14.328514
_cell_angle_alpha                90.0
_cell_angle_beta                 109.1715
_cell_angle_gamma                90.0
loop_
_atom_site_label
_atom_site_type_symbol
_atom_site_fract_x
_atom_site_fract_y
_atom_site_fract_z
     1  O          0.28059700       0.59538160       0.50248700
     2  O          0.71940300       0.09538160      -0.00248700
     3  O          0.71940300       0.40461840       0.49751300
     4  O          0.28059700       0.90461840       0.00248700
     5  O          0.21200800       0.93089170       0.54262700
     6  O          0.78799200       0.43089170       0.95737300
     7  O          0.78799200       0.06910830       0.45737300
     8  O          0.21200800       0.56910830       0.04262700
     9  H          0.19500000       0.94450000       0.48240000
    10  H          0.80500000       0.44450000       0.01760000
    11  H          0.80500000       0.05550000       0.51760000
    12  H          0.19500000       0.55550000       0.98240000
    13  F          0.47640800       0.27752000       0.91168700
    14  F          0.52359200       0.77752000       0.58831300
    15  F          0.52359200       0.72248000       0.08831300
    16  F          0.47640800       0.22248000       0.41168700
    17  C          0.36261900       0.45692000       0.66170100
    18  C          0.63738100       0.95692000       0.83829900
    19  C          0.63738100       0.54308000       0.33829900
    20  C          0.36261900       0.04308000       0.16170100
    21  C          0.32009900       0.65742000       0.67540900
    22  C          0.67990100       0.15742000       0.82459100
    23  C          0.67990100       0.34258000       0.32459100
    24  C          0.32009900       0.84258000       0.17540900
    25  C          0.33239100       0.72873000       0.77139100
    26  C          0.66760900       0.22873000       0.72860900
    27  C          0.66760900       0.27127000       0.22860900
    28  C          0.33239100       0.77127000       0.27139100
    29  H          0.30480000       0.86280000       0.78190000
    30  H          0.69520000       0.36280000       0.71810000
    31  H          0.69520000       0.13720000       0.21810000
    32  H          0.30480000       0.63720000       0.28190000
    33  C          0.34183120       0.41442000       0.55332110
    34  C          0.65816880       0.91442000       0.94667890
    35  C          0.65816880       0.58558000       0.44667890
    36  C          0.34183120       0.08558000       0.05332110
    37  H          0.40030000       0.41380000       0.53730000
    38  H          0.59970000       0.91380000       0.96270000
    39  H          0.59970000       0.58620000       0.46270000
    40  H          0.40030000       0.08620000       0.03730000
    41  H          0.31040000       0.27010000       0.53460000
    42  H          0.68960000       0.77010000       0.96540000
    43  H          0.68960000       0.72990000       0.46540000
    44  H          0.31040000       0.22990000       0.03460000
    45  C          0.41590100       0.32633000       0.74035100
    46  C          0.58409900       0.82633000       0.75964900
    47  C          0.58409900       0.67367000       0.25964900
    48  C          0.41590100       0.17367000       0.24035100
    49  H          0.44420000       0.19230000       0.73080000
    50  H          0.55580000       0.69230000       0.76920000
    51  H          0.55580000       0.80770000       0.26920000
    52  H          0.44420000       0.30770000       0.23080000
    53  C          0.42495100       0.40383000       0.83272110
    54  C          0.57504900       0.90383000       0.66727890
    55  C          0.57504900       0.59617000       0.16727890
    56  C          0.42495100       0.09617000       0.33272110
    57  C          0.38538100       0.60123000       0.85090110
    58  C          0.61461900       0.10123000       0.64909890
    59  C          0.61461900       0.39877000       0.14909890
    60  C          0.38538100       0.89877000       0.35090110
    61  H          0.39410000       0.64770000       0.91530000
    62  H          0.60590000       0.14770000       0.58470000
    63  H          0.60590000       0.35230000       0.08470000
    64  H          0.39410000       0.85230000       0.41530000
    65  B          0.26581120       0.74473000       0.56977120
    66  B          0.73418880       0.24473000       0.93022880
    67  B          0.73418880       0.25527000       0.43022880
    68  B          0.26581120       0.75527000       0.06977120
    69  N          0.15051800       0.01512000       0.34356900
    70  N          0.84948200       0.51512000       0.15643100
    71  N          0.84948200      -0.01512000       0.65643100
    72  N          0.15051800       0.48488000       0.84356900
    73  C          0.07714900       0.03842000       0.13628110
    74  C          0.92285100       0.53842000       0.36371890
    75  C          0.92285100       0.96158000       0.86371890
    76  C          0.07714900       0.46158000       0.63628110
    77  C          0.03532900       0.06122000       0.02942110
    78  C          0.96467100       0.56122000       0.47057890
    79  C          0.96467100       0.93878000       0.97057890
    80  C          0.03532900       0.43878000       0.52942110
    81  H          0.06060000       0.17240000      -0.00040000
    82  H          0.93940000       0.67240000       0.50040000
    83  H          0.93940000       0.82760000       0.00040000
    84  H          0.06060000       0.32760000       0.49960000
    85  C          0.13316900       0.20982000       0.19268100
    86  C          0.86683100       0.70982000       0.30731900
    87  C          0.86683100       0.79018000       0.80731900
    88  C          0.13316900       0.29018000       0.69268100
    89  H          0.14790000       0.33590000       0.16190000
    90  H          0.85210000       0.83590000       0.33810000
    91  H          0.85210000       0.66410000       0.83810000
    92  H          0.14790000       0.16410000       0.66190000
    93  C          0.16670100       0.19233000       0.29389110
    94  C          0.83329900       0.69233000       0.20610890
    95  C          0.83329900       0.80767000       0.70610890
    96  C          0.16670100       0.30767000       0.79389110
    97  H          0.20280000       0.31070000       0.32990000
    98  H          0.79720000       0.81070000       0.17010000
    99  H          0.79720000       0.68930000       0.67010000
   100  H          0.20280000       0.18930000       0.82990000
   101  C          0.06273100       0.85023000       0.18845120
   102  C          0.93726900       0.35023000       0.31154880
   103  C          0.93726900       0.14977000       0.81154880
   104  C          0.06273100       0.64977000       0.68845120
   105  H          0.02770000       0.72800000       0.15470000
   106  H          0.97230000       0.22800000       0.34530000
   107  H          0.97230000       0.27200000       0.84530000
   108  H          0.02770000       0.77200000       0.65470000
   109  C          0.10027100       0.84653000       0.28914120
   110  C          0.89972900       0.34653000       0.21085880
   111  C          0.89972900       0.15347000       0.71085880
   112  C          0.10027100       0.65347000       0.78914120
   113  H          0.09020000       0.71850000       0.32190000
   114  H          0.90980000       0.21850000       0.17810000
   115  H          0.90980000       0.28150000       0.67810000
   116  H          0.09020000       0.78150000       0.82190000
