data_WARSUG
_symmetry_space_group_name_H-M    'P1'
_symmetry_Int_Tables_number       1
loop_
_symmetry_equiv_pos_site_id
_symmetry_equiv_pos_as_xyz
1 x,y,z
_cell_length_a                   9.85753
_cell_length_b                   10.77243
_cell_length_c                   12.27003
_cell_angle_alpha                91.40445
_cell_angle_beta                 101.52245
_cell_angle_gamma                109.29735
loop_
_atom_site_label
_atom_site_type_symbol
_atom_site_fract_x
_atom_site_fract_y
_atom_site_fract_z
     1  O          0.73013900       0.50914800       0.28914700
     2  O          0.26986100       0.49085200       0.71085300
     3  O          0.89144900       0.38775800       0.27791700
     4  O          0.10855100       0.61224200       0.72208300
     5  O          0.64831900       0.30595800       0.16475700
     6  O          0.35168100       0.69404200       0.83524300
     7  N          0.53695100       0.47709900       0.11861800
     8  N          0.46304900       0.52290100       0.88138200
     9  H          0.50251500       0.53341300       0.14781100
    10  H          0.49748500       0.46658700       0.85218900
    11  C          0.47959120       0.33357110       0.28783900
    12  C          0.52040880       0.66642890       0.71216100
    13  C          0.42760130       0.40531120       0.35623100
    14  C          0.57239870       0.59468880       0.64376900
    15  H          0.46060000       0.49890000       0.35830000
    16  H          0.53940000       0.50110000       0.64170000
    17  C          0.32895130       0.34280120       0.42111100
    18  C          0.67104870       0.65719880       0.57888900
    19  H          0.29600000       0.39370000       0.46720000
    20  H          0.70400000       0.60630000       0.53280000
    21  C          0.27869140       0.20609130       0.41852100
    22  C          0.72130860       0.79390870       0.58147900
    23  H          0.21100000       0.16320000       0.46250000
    24  H          0.78900000       0.83680000       0.53750000
    25  C          0.32764140       0.13215120       0.35144100
    26  C          0.67235860       0.86784880       0.64855900
    27  H          0.29380000       0.03850000       0.34950000
    28  H          0.70620000       0.96150000       0.65050000
    29  C          0.42648130       0.19583110       0.28705900
    30  C          0.57351870       0.80416890       0.71294100
    31  H          0.45890000       0.14420000       0.24110000
    32  H          0.54110000       0.85580000       0.75890000
    33  C          0.00046120       0.61423110       0.38622900
    34  C         -0.00046120       0.38576890       0.61377100
    35  C         -0.01346870       0.73327120       0.42049100
    36  C          0.01346870       0.26672880       0.57950900
    37  H          0.89360000       0.74490000       0.40050000
    38  H          0.10640000       0.25510000       0.59950000
    39  C          0.10663140       0.83491120       0.48343110
    40  C          0.89336860       0.16508880       0.51656890
    41  H          0.09520000       0.91510000       0.50630000
    42  H          0.90480000       0.08490000       0.49370000
    43  C          0.24301140       0.81956130       0.51280110
    44  C          0.75698860       0.18043870       0.48719890
    45  H          0.32480000       0.88890000       0.55620000
    46  H          0.67520000       0.11110000       0.44380000
    47  C          0.25983130       0.70262130       0.47869100
    48  C          0.74016870       0.29737870       0.52130900
    49  H          0.35330000       0.69200000       0.49810000
    50  H          0.64670000       0.30800000       0.50190000
    51  C          0.13939130       0.60108120       0.41601100
    52  C          0.86060870       0.39891880       0.58398900
    53  H          0.15160000       0.52130000       0.39300000
    54  H          0.84840000       0.47870000       0.60700000
    55  C          0.81070120       0.16957110       0.15608100
    56  C          0.18929880       0.83042890       0.84391900
    57  C          0.93978140       0.14344120       0.19976110
    58  C          0.06021860       0.85655880       0.80023890
    59  H          0.01190000       0.20160000       0.25890000
    60  H         -0.01190000       0.79840000       0.74110000
    61  C          0.96388150       0.03310140       0.15759130
    62  C          0.03611850       0.96689860       0.84240870
    63  H          0.05140000       0.01580000       0.18870000
    64  H          0.94860000       0.98420000       0.81130000
    65  C          0.86015150       0.94855870       0.07023120
    66  C          0.13984850       0.05144130       0.92976880
    67  H          0.87730000       0.87400000       0.04100000
    68  H          0.12270000       0.12600000       0.95900000
    69  C          0.73162140       0.97250880       0.02534100
    70  C          0.26837860       0.02749120       0.97465900
    71  H          0.66070000       0.91480000       0.96530000
    72  H          0.33930000       0.08520000       0.03470000
    73  C          0.70714130       0.08181110       0.06903100
    74  C          0.29285870       0.91818890       0.93096900
    75  H          0.61810000       0.09700000       0.03900000
    76  H          0.38190000       0.90300000       0.96100000
    77  C          0.65149120       0.55325110       0.05902900
    78  C          0.34850880       0.44674890       0.94097100
    79  H          0.69500000       0.49280000       0.02910000
    80  H          0.30500000       0.50720000       0.97090000
    81  H          0.73120000       0.62150000       0.11270000
    82  H          0.26880000       0.37850000       0.88730000
    83  C          0.58821120       0.61926110       0.96382100
    84  C          0.41178880       0.38073890       0.03617900
    85  H          0.55380000       0.68620000      -0.00520000
    86  H          0.44620000       0.31380000       0.00520000
    87  H          0.66690000       0.66560000       0.92500000
    88  H          0.33310000       0.33440000       0.07500000
    89  B          0.60482140       0.40332120       0.22053100
    90  B          0.39517860       0.59667880       0.77946900
    91  B          0.86549140       0.49873120       0.31548100
    92  B          0.13450860       0.50126880       0.68451900
    93  B          0.78094140       0.29304120       0.20184100
    94  B          0.21905860       0.70695880       0.79815900
    95  O          0.36530100       0.64141900       0.15918800
    96  O          0.63469900       0.35858100       0.84081200
    97  C          0.63022150       0.82330140       0.28176120
    98  C          0.36977850       0.17669860       0.71823880
    99  H          0.65200000       0.80790000       0.20910000
   100  H          0.34800000       0.19210000       0.79090000
   101  H          0.62100000       0.74460000       0.32220000
   102  H          0.37900000       0.25540000       0.67780000
   103  H          0.71030000       0.89910000       0.32540000
   104  H          0.28970000       0.10090000       0.67460000
   105  C          0.48721150       0.85151130       0.26409130
   106  C          0.51278850       0.14848870       0.73590870
   107  H          0.46760000       0.86840000       0.33810000
   108  H          0.53240000       0.13160000       0.66190000
   109  H          0.49950000       0.93320000       0.22600000
   110  H          0.50050000       0.06680000       0.77400000
   111  C          0.35523140       0.74273120       0.19675100
   112  C          0.64476860       0.25726880       0.80324900
   113  C          0.20991140       0.76561130       0.17743110
   114  C          0.79008860       0.23438870       0.82256890
   115  H          0.22060000       0.84910000       0.14240000
   116  H          0.77940000       0.15090000       0.85760000
   117  H          0.18520000       0.77640000       0.25060000
   118  H          0.81480000       0.22360000       0.74940000
   119  C          0.08369150       0.65529160       0.10414130
   120  C          0.91630850       0.34470840       0.89585870
   121  H         -0.00710000       0.67620000       0.09580000
   122  H          0.00710000       0.32380000       0.90420000
   123  H          0.07110000       0.57230000       0.13870000
   124  H          0.92890000       0.42770000       0.86130000
   125  H          0.10540000       0.64590000       0.03050000
   126  H          0.89460000       0.35410000       0.96950000
