data_WARVAN
_symmetry_space_group_name_H-M    'P1'
_symmetry_Int_Tables_number       1
loop_
_symmetry_equiv_pos_site_id
_symmetry_equiv_pos_as_xyz
1 x,y,z
_cell_length_a                   14.14471
_cell_length_b                   11.41709
_cell_length_c                   9.59457
_cell_angle_alpha                90.0
_cell_angle_beta                 91.8443
_cell_angle_gamma                90.0
loop_
_atom_site_label
_atom_site_type_symbol
_atom_site_fract_x
_atom_site_fract_y
_atom_site_fract_z
     1  Cl         0.24259600       0.49949100       0.68499100
     2  Cl         0.75740400      -0.00050900       0.81500900
     3  Cl         0.75740400       0.50050900       0.31500900
     4  Cl         0.24259600       0.00050900       0.18499100
     5  O          0.38287170       0.32822000       0.55043000
     6  O          0.61712830       0.82822000       0.94957000
     7  O          0.61712830       0.67178000       0.44957000
     8  O          0.38287170       0.17178000       0.05043000
     9  C          0.45572000       0.60763000       0.45084000
    10  C          0.54428000       0.10763000       0.04916000
    11  C          0.54428000       0.39237000       0.54916000
    12  C          0.45572000       0.89237000       0.95084000
    13  C          0.44392000       0.42103000       0.59583000
    14  C          0.55608000       0.92103000       0.90417000
    15  C          0.55608000       0.57897000       0.40417000
    16  C          0.44392000       0.07897000       0.09583000
    17  C          0.40572000       0.53823000       0.54143000
    18  C          0.59428000       0.03823000       0.95857000
    19  C          0.59428000       0.46177000       0.45857000
    20  C          0.40572000       0.96177000       0.04143000
    21  C          0.44652000       0.42113000       0.75034000
    22  C          0.55348000       0.92113000       0.74966000
    23  C          0.55348000       0.57887000       0.24966000
    24  C          0.44652000       0.07887000       0.25034000
    25  C          0.31402000       0.57893000       0.57514000
    26  C          0.68598000       0.07893000       0.92486000
    27  C          0.68598000       0.42107000       0.42486000
    28  C          0.31402000       0.92107000       0.07514000
    29  C          0.41753000       0.71124000       0.39514000
    30  C          0.58247000       0.21124000       0.10486000
    31  C          0.58247000       0.28876000       0.60486000
    32  C          0.41753000       0.78876000       0.89514000
    33  C          0.27833000       0.68214000       0.52164000
    34  C          0.72167000       0.18214000       0.97836000
    35  C          0.72167000       0.31786000       0.47836000
    36  C          0.27833000       0.81786000       0.02164000
    37  C          0.45283000       0.41404000       0.87235000
    38  C          0.54717000       0.91404000       0.62765000
    39  C          0.54717000       0.58596000       0.12765000
    40  C          0.45283000       0.08596000       0.37235000
    41  C          0.32923000       0.74814000       0.43175000
    42  C          0.67077000       0.24814000       0.06825000
    43  C          0.67077000       0.25186000       0.56825000
    44  C          0.32923000       0.75186000       0.93175000
    45  H          0.44120000       0.76830000       0.32840000
    46  H          0.55880000       0.26830000       0.17160000
    47  H          0.55880000       0.23170000       0.67160000
    48  H          0.44120000       0.73170000       0.82840000
    49  H          0.21520000       0.70330000       0.54540000
    50  H          0.78480000       0.20330000       0.95460000
    51  H          0.78480000       0.29670000       0.45460000
    52  H          0.21520000       0.79670000       0.04540000
    53  H          0.31730000       0.82050000       0.39750000
    54  H          0.68270000       0.32050000       0.10250000
    55  H          0.68270000       0.17950000       0.60250000
    56  H          0.31730000       0.67950000       0.89750000
    57  H          0.45530000       0.40540000       0.97140000
    58  H          0.54470000       0.90540000       0.52860000
    59  H          0.54470000       0.59460000       0.02860000
    60  H          0.45530000       0.09460000       0.47140000
    61  H          0.37330000       0.33330000       0.46340000
    62  H          0.62670000       0.83330000       0.03660000
    63  H          0.62670000       0.66670000       0.53660000
    64  H          0.37330000       0.16670000       0.96340000
    65  H          0.68330000       0.18050000       0.60350000
    66  H          0.31670000       0.68050000       0.89650000
    67  H          0.31670000       0.81950000       0.39650000
    68  H          0.68330000       0.31950000       0.10350000
    69  N          0.64452000       0.63333000       0.72434000
    70  N          0.35548000       0.13333000       0.77566000
    71  N          0.35548000       0.36667000       0.27566000
    72  N          0.64452000       0.86667000       0.22434000
    73  C          0.74283000       0.59133000       0.74684000
    74  C          0.25717000       0.09133000       0.75316000
    75  C          0.25717000       0.40867000       0.25316000
    76  C          0.74283000       0.90867000       0.24684000
    77  C          0.75643000       0.53325000       0.88975000
    78  C          0.24357000       0.03325000       0.61025000
    79  C          0.24357000       0.46675000       0.11025000
    80  C          0.75643000       0.96675000       0.38975000
    81  C          0.81023000       0.69394000       0.72095000
    82  C          0.18977000       0.19394000       0.77905000
    83  C          0.18977000       0.30606000       0.27905000
    84  C          0.81023000       0.80606000       0.22095000
    85  C          0.85543000       0.49536000       0.93435000
    86  C          0.14457000      -0.00464000       0.56565000
    87  C          0.14457000       0.50464000       0.06565000
    88  C          0.85543000       0.00464000       0.43435000
    89  C          0.94503000       0.45574000       0.70855000
    90  C          0.05497000       0.95574000       0.79145000
    91  C          0.05497000       0.54426000       0.29145000
    92  C          0.94503000       0.04426000       0.20855000
    93  H          0.90010000       0.43110000       0.63280000
    94  H          0.09990000       0.93110000       0.86720000
    95  H          0.09990000       0.56890000       0.36720000
    96  H          0.90010000       0.06890000       0.13280000
    97  H          0.00430000       0.41150000       0.69510000
    98  H         -0.00430000       0.91150000       0.80490000
    99  H         -0.00430000       0.58850000       0.30490000
   100  H          0.00430000       0.08850000       0.19510000
   101  C          0.90554000       0.41386000       0.84207000
   102  C          0.09446000       0.91386000       0.65793000
   103  C          0.09446000       0.58614000       0.15793000
   104  C          0.90554000       0.08614000       0.34207000
   105  C          0.96713000       0.58185000       0.68336000
   106  C          0.03287000       0.08185000       0.81664000
   107  C          0.03287000       0.41815000       0.31664000
   108  C          0.96713000       0.91815000       0.18336000
   109  H         -0.00000000       0.61060000       0.76930000
   110  H          0.00000000       0.11060000       0.73070000
   111  H          0.00000000       0.38940000       0.23070000
   112  H         -0.00000000       0.88940000       0.26930000
   113  H          0.01430000       0.58310000       0.60940000
   114  H          0.98570000       0.08310000       0.89060000
   115  H          0.98570000       0.41690000       0.39060000
   116  H          0.01430000       0.91690000       0.10940000
   117  C          0.89814000       0.66845000       0.64577000
   118  C          0.10186000       0.16845000       0.85423000
   119  C          0.10186000       0.33155000       0.35423000
   120  C          0.89814000       0.83155000       0.14577000
   121  H          0.87750000       0.65040000       0.54850000
   122  H          0.12250000       0.15040000       0.95150000
   123  H          0.12250000       0.34960000       0.45150000
   124  H          0.87750000       0.84960000       0.04850000
   125  H          0.93290000       0.74360000       0.64220000
   126  H          0.06710000       0.24360000       0.85780000
   127  H          0.06710000       0.25640000       0.35780000
   128  H          0.93290000       0.75640000       0.14220000
   129  H          0.59920000       0.57630000       0.75540000
   130  H          0.40080000       0.07630000       0.74460000
   131  H          0.40080000       0.42370000       0.24460000
   132  H          0.59920000       0.92370000       0.25540000
   133  H          0.75020000       0.53530000       0.67730000
   134  H          0.24980000       0.03530000       0.82270000
   135  H          0.24980000       0.46470000       0.32270000
   136  H          0.75020000       0.96470000       0.17730000
   137  H          0.82430000       0.72640000       0.80640000
   138  H          0.17570000       0.22640000       0.69360000
   139  H          0.17570000       0.27360000       0.19360000
   140  H          0.82430000       0.77360000       0.30640000
   141  H          0.77930000       0.74440000       0.66040000
   142  H          0.22070000       0.24440000       0.83960000
   143  H          0.22070000       0.25560000       0.33960000
   144  H          0.77930000       0.75560000       0.16040000
   145  H          0.85730000       0.46640000       0.02450000
   146  H          0.14270000       0.96640000       0.47550000
   147  H          0.14270000       0.53360000       0.97550000
   148  H          0.85730000       0.03360000       0.52450000
   149  H          0.63820000       0.68430000       0.77340000
   150  H          0.36180000       0.18430000       0.72660000
   151  H          0.36180000       0.31570000       0.22660000
   152  H          0.63820000       0.81570000       0.27340000
   153  H          0.95730000       0.38840000       0.88750000
   154  H          0.04270000       0.88840000       0.61250000
   155  H          0.04270000       0.61160000       0.11250000
   156  H          0.95730000       0.11160000       0.38750000
   157  H          0.87330000       0.35040000       0.81650000
   158  H          0.12670000       0.85040000       0.68350000
   159  H          0.12670000       0.64960000       0.18350000
   160  H          0.87330000       0.14960000       0.31650000
   161  H          0.71630000       0.46830000       0.87940000
   162  H          0.28370000       0.96830000       0.62060000
   163  H          0.28370000       0.53170000       0.12060000
   164  H          0.71630000       0.03170000       0.37940000
   165  H          0.89630000       0.57140000       0.94740000
   166  H          0.10370000       0.07140000       0.55260000
   167  H          0.10370000       0.42860000       0.05260000
   168  H          0.89630000       0.92860000       0.44740000
   169  H          0.72530000       0.58350000       0.95650000
   170  H          0.27470000       0.08350000       0.54350000
   171  H          0.27470000       0.41650000       0.04350000
   172  H          0.72530000       0.91650000       0.45650000
