data_WAWDOP
_symmetry_space_group_name_H-M    'P1'
_symmetry_Int_Tables_number       1
loop_
_symmetry_equiv_pos_site_id
_symmetry_equiv_pos_as_xyz
1 x,y,z
_cell_length_a                   22.7083
_cell_length_b                   8.553114
_cell_length_c                   12.456119
_cell_angle_alpha                90.0
_cell_angle_beta                 115.2245
_cell_angle_gamma                90.0
loop_
_atom_site_label
_atom_site_type_symbol
_atom_site_fract_x
_atom_site_fract_y
_atom_site_fract_z
     1  O          0.41027120       0.36823000       0.68622000
     2  O          0.58972880       0.36823000       0.81378000
     3  O          0.91027120       0.86823000       0.68622000
     4  O          0.08972880       0.86823000       0.81378000
     5  O          0.58972880       0.63177000       0.31378000
     6  O          0.41027120       0.63177000       0.18622000
     7  O          0.08972880       0.13177000       0.31378000
     8  O          0.91027120       0.13177000       0.18622000
     9  N          0.38672000       0.62175000       0.64524000
    10  N          0.61328000       0.62175000       0.85476000
    11  N          0.88672000       0.12175000       0.64524000
    12  N          0.11328000       0.12175000       0.85476000
    13  N          0.61328000       0.37825000       0.35476000
    14  N          0.38672000       0.37825000       0.14524000
    15  N          0.11328000       0.87825000       0.35476000
    16  N          0.88672000       0.87825000       0.14524000
    17  C          0.41352000       0.50827000       0.71734000
    18  C          0.58648000       0.50827000       0.78266000
    19  C          0.91352000       0.00827000       0.71734000
    20  C          0.08648000       0.00827000       0.78266000
    21  C          0.58648000       0.49173000       0.28266000
    22  C          0.41352000       0.49173000       0.21734000
    23  C          0.08648000      -0.00827000       0.28266000
    24  C          0.91352000      -0.00827000       0.21734000
    25  C          0.35242000       0.57826000       0.51433000
    26  C          0.64758000       0.57826000       0.98567000
    27  C          0.85242000       0.07826000       0.51433000
    28  C          0.14758000       0.07826000       0.98567000
    29  C          0.64758000       0.42174000       0.48567000
    30  C          0.35242000       0.42174000       0.01433000
    31  C          0.14758000       0.92174000       0.48567000
    32  C          0.85242000       0.92174000       0.01433000
    33  H          0.35550000       0.46500000       0.50550000
    34  H          0.64450000       0.46500000      -0.00550000
    35  H          0.85550000       0.96500000       0.50550000
    36  H          0.14450000       0.96500000      -0.00550000
    37  H          0.64450000       0.53500000       0.49450000
    38  H          0.35550000       0.53500000       0.00550000
    39  H          0.14450000       0.03500000       0.49450000
    40  H          0.85550000       0.03500000       0.00550000
    41  H          0.37310000       0.63290000       0.47030000
    42  H          0.62690000       0.63290000       0.02970000
    43  H          0.87310000       0.13290000       0.47030000
    44  H          0.12690000       0.13290000       0.02970000
    45  H          0.62690000       0.36710000       0.52970000
    46  H          0.37310000       0.36710000       0.97030000
    47  H          0.12690000       0.86710000       0.52970000
    48  H          0.87310000       0.86710000       0.97030000
    49  H          0.30650000       0.60860000       0.48290000
    50  H          0.69350000       0.60860000       0.01710000
    51  H          0.80650000       0.10860000       0.48290000
    52  H          0.19350000       0.10860000       0.01710000
    53  H          0.69350000       0.39140000       0.51710000
    54  H          0.30650000       0.39140000       0.98290000
    55  H          0.19350000       0.89140000       0.51710000
    56  H          0.80650000       0.89140000       0.98290000
    57  C          0.38843000       0.78815000       0.67725000
    58  C          0.61157000       0.78815000       0.82275000
    59  C          0.88843000       0.28815000       0.67725000
    60  C          0.11157000       0.28815000       0.82275000
    61  C          0.61157000       0.21185000       0.32275000
    62  C          0.38843000       0.21185000       0.17725000
    63  C          0.11157000       0.71185000       0.32275000
    64  C          0.88843000       0.71185000       0.17725000
    65  H          0.39120000       0.79690000       0.75770000
    66  H          0.60880000       0.79690000       0.74230000
    67  H          0.89120000       0.29690000       0.75770000
    68  H          0.10880000       0.29690000       0.74230000
    69  H          0.60880000       0.20310000       0.24230000
    70  H          0.39120000       0.20310000       0.25770000
    71  H          0.10880000       0.70310000       0.24230000
    72  H          0.89120000       0.70310000       0.25770000
    73  H          0.34870000       0.83990000       0.62110000
    74  H          0.65130000       0.83990000       0.87890000
    75  H          0.84870000       0.33990000       0.62110000
    76  H          0.15130000       0.33990000       0.87890000
    77  H          0.65130000       0.16010000       0.37890000
    78  H          0.34870000       0.16010000       0.12110000
    79  H          0.15130000       0.66010000       0.37890000
    80  H          0.84870000       0.66010000       0.12110000
    81  H          0.42640000       0.83820000       0.67410000
    82  H          0.57360000       0.83820000       0.82590000
    83  H          0.92640000       0.33820000       0.67410000
    84  H          0.07360000       0.33820000       0.82590000
    85  H          0.57360000       0.16180000       0.32590000
    86  H          0.42640000       0.16180000       0.17410000
    87  H          0.07360000       0.66180000       0.32590000
    88  H          0.92640000       0.66180000       0.17410000
    89  C          0.45102000       0.55856000       0.84793000
    90  C          0.54898000       0.55856000       0.65207000
    91  C          0.95102000       0.05856000       0.84793000
    92  C          0.04898000       0.05856000       0.65207000
    93  C          0.54898000       0.44144000       0.15207000
    94  C          0.45102000       0.44144000       0.34793000
    95  C          0.04898000       0.94144000       0.15207000
    96  C          0.95102000       0.94144000       0.34793000
    97  H          0.47240000       0.46720000       0.89630000
    98  H          0.52760000       0.46720000       0.60370000
    99  H          0.97240000       0.96720000       0.89630000
   100  H          0.02760000       0.96720000       0.60370000
   101  H          0.52760000       0.53280000       0.10370000
   102  H          0.47240000       0.53280000       0.39630000
   103  H          0.02760000       0.03280000       0.10370000
   104  H          0.97240000       0.03280000       0.39630000
   105  H          0.42060000       0.60350000       0.87630000
   106  H          0.57940000       0.60350000       0.62370000
   107  H          0.92060000       0.10350000       0.87630000
   108  H          0.07940000       0.10350000       0.62370000
   109  H          0.57940000       0.39650000       0.12370000
   110  H          0.42060000       0.39650000       0.37630000
   111  H          0.07940000       0.89650000       0.12370000
   112  H          0.92060000       0.89650000       0.37630000
   113  H          0.48380000       0.63670000       0.85400000
   114  H          0.51620000       0.63670000       0.64600000
   115  H          0.98380000       0.13670000       0.85400000
   116  H          0.01620000       0.13670000       0.64600000
   117  H          0.51620000       0.36330000       0.14600000
   118  H          0.48380000       0.36330000       0.35400000
   119  H          0.01620000       0.86330000       0.14600000
   120  H          0.98380000       0.86330000       0.35400000
   121  B          0.50142000       0.93295000       0.04853000
   122  B          0.49858000       0.93295000       0.45147000
   123  B          0.00142000       0.43295000       0.04853000
   124  B         -0.00142000       0.43295000       0.45147000
   125  B          0.49858000       0.06705000       0.95147000
   126  B          0.50142000       0.06705000       0.54853000
   127  B         -0.00142000       0.56705000       0.95147000
   128  B          0.00142000       0.56705000       0.54853000
   129  N          0.44150150       0.88026000       0.04322000
   130  N          0.55849850       0.88026000       0.45678000
   131  N          0.94150150       0.38026000       0.04322000
   132  N          0.05849850       0.38026000       0.45678000
   133  N          0.55849850       0.11974000       0.95678000
   134  N          0.44150150       0.11974000       0.54322000
   135  N          0.05849850       0.61974000       0.95678000
   136  N          0.94150150       0.61974000       0.54322000
   137  H          0.43541900       0.81350000       0.08530000
   138  H          0.56458100       0.81350000       0.41470000
   139  H          0.93541900       0.31350000       0.08530000
   140  H          0.06458100       0.31350000       0.41470000
   141  H          0.56458100       0.18650000       0.91470000
   142  H          0.43541900       0.18650000       0.58530000
   143  H          0.06458100       0.68650000       0.91470000
   144  H          0.93541900       0.68650000       0.58530000
   145  N          0.43544140       0.11694000       0.87172000
   146  N          0.56455860       0.11694000       0.62828000
   147  N          0.93544140       0.61694000       0.87172000
   148  N          0.06455860       0.61694000       0.62828000
   149  N          0.56455860       0.88306000       0.12828000
   150  N          0.43544140       0.88306000       0.37172000
   151  N          0.06455860       0.38306000       0.12828000
   152  N          0.93544140       0.38306000       0.37172000
   153  H          0.42801900       0.18550000       0.81840000
   154  H          0.57198100       0.18550000       0.68160000
   155  H          0.92801900       0.68550000       0.81840000
   156  H          0.07198100       0.68550000       0.68160000
   157  H          0.57198100       0.81450000       0.18160000
   158  H          0.42801900       0.81450000       0.31840000
   159  H          0.07198100       0.31450000       0.18160000
   160  H          0.92801900       0.31450000       0.31840000
   161  C          0.38182170       0.94096000       0.95993000
   162  C          0.61817830       0.94096000       0.54007000
   163  C          0.88182170       0.44096000       0.95993000
   164  C          0.11817830       0.44096000       0.54007000
   165  C          0.61817830       0.05904000       0.04007000
   166  C          0.38182170       0.05904000       0.45993000
   167  C          0.11817830       0.55904000       0.04007000
   168  C          0.88182170       0.55904000       0.45993000
   169  C          0.37890170       0.05614000       0.87613000
   170  C          0.62109830       0.05614000       0.62387000
   171  C          0.87890170       0.55614000       0.87613000
   172  C          0.12109830       0.55614000       0.62387000
   173  C          0.62109830       0.94386000       0.12387000
   174  C          0.37890170       0.94386000       0.37613000
   175  C          0.12109830       0.44386000       0.12387000
   176  C          0.87890170       0.44386000       0.37613000
   177  C          0.31822190       0.11105000       0.79713000
   178  C          0.68177810       0.11105000       0.70287000
   179  C          0.81822190       0.61105000       0.79713000
   180  C          0.18177810       0.61105000       0.70287000
   181  C          0.68177810       0.88895000       0.20287000
   182  C          0.31822190       0.88895000       0.29713000
   183  C          0.18177810       0.38895000       0.20287000
   184  C          0.81822190       0.38895000       0.29713000
   185  H          0.31590000       0.18660000       0.73960000
   186  H          0.68410000       0.18660000       0.76040000
   187  H          0.81590000       0.68660000       0.73960000
   188  H          0.18410000       0.68660000       0.76040000
   189  H          0.68410000       0.81340000       0.26040000
   190  H          0.31590000       0.81340000       0.23960000
   191  H          0.18410000       0.31340000       0.26040000
   192  H          0.81590000       0.31340000       0.23960000
   193  C          0.26102000       0.05925000       0.79953000
   194  C          0.73898000       0.05925000       0.70047000
   195  C          0.76102000       0.55925000       0.79953000
   196  C          0.23898000       0.55925000       0.70047000
   197  C          0.73898000       0.94075000       0.20047000
   198  C          0.26102000       0.94075000       0.29953000
   199  C          0.23898000       0.44075000       0.20047000
   200  C          0.76102000       0.44075000       0.29953000
   201  H          0.22020000       0.09940000       0.74490000
   202  H          0.77980000       0.09940000       0.75510000
   203  H          0.72020000       0.59940000       0.74490000
   204  H          0.27980000       0.59940000       0.75510000
   205  H          0.77980000       0.90060000       0.25510000
   206  H          0.22020000       0.90060000       0.24490000
   207  H          0.27980000       0.40060000       0.25510000
   208  H          0.72020000       0.40060000       0.24490000
   209  C          0.26412190       0.94805000       0.88243000
   210  C          0.73587810       0.94805000       0.61757000
   211  C          0.76412190       0.44805000       0.88243000
   212  C          0.23587810       0.44805000       0.61757000
   213  C          0.73587810       0.05195000       0.11757000
   214  C          0.26412190       0.05195000       0.38243000
   215  C          0.23587810       0.55195000       0.11757000
   216  C          0.76412190       0.55195000       0.38243000
   217  H          0.22540000       0.91190000       0.88560000
   218  H          0.77460000       0.91190000       0.61440000
   219  H          0.72540000       0.41190000       0.88560000
   220  H          0.27460000       0.41190000       0.61440000
   221  H          0.77460000       0.08810000       0.11440000
   222  H          0.22540000       0.08810000       0.38560000
   223  H          0.27460000       0.58810000       0.11440000
   224  H          0.72540000       0.58810000       0.38560000
   225  C          0.32356180       0.89046000       0.96013000
   226  C          0.67643820       0.89046000       0.53987000
   227  C          0.82356180       0.39046000       0.96013000
   228  C          0.17643820       0.39046000       0.53987000
   229  C          0.67643820       0.10954000       0.03987000
   230  C          0.32356180       0.10954000       0.46013000
   231  C          0.17643820       0.60954000       0.03987000
   232  C          0.82356180       0.60954000       0.46013000
   233  H          0.32500000       0.81330000       0.01600000
   234  H          0.67500000       0.81330000       0.48400000
   235  H          0.82500000       0.31330000       0.01600000
   236  H          0.17500000       0.31330000       0.48400000
   237  H          0.67500000       0.18670000       0.98400000
   238  H          0.32500000       0.18670000       0.51600000
   239  H          0.17500000       0.68670000       0.98400000
   240  H          0.82500000       0.68670000       0.51600000
