data_WEBZIQ
_symmetry_space_group_name_H-M    'P1'
_symmetry_Int_Tables_number       1
loop_
_symmetry_equiv_pos_site_id
_symmetry_equiv_pos_as_xyz
1 x,y,z
_cell_length_a                   8.09582
_cell_length_b                   9.25193
_cell_length_c                   13.56454
_cell_angle_alpha                95.7972
_cell_angle_beta                 104.4433
_cell_angle_gamma                96.6812
loop_
_atom_site_label
_atom_site_type_symbol
_atom_site_fract_x
_atom_site_fract_y
_atom_site_fract_z
     1  I          0.96417300       0.37731300       0.17452200
     2  I          0.03582700       0.62268700       0.82547800
     3  I          0.47647300       0.41721300       0.76304200
     4  I          0.52352700       0.58278700       0.23695800
     5  I          0.74912400       0.96061300       0.07503300
     6  I          0.25087600       0.03938700       0.92496700
     7  F          0.53103000       0.74363000       0.87762000
     8  F          0.46897000       0.25637000       0.12238000
     9  F          0.93963000       0.71863000       0.18672000
    10  F          0.06037000       0.28137000       0.81328000
    11  F          0.71854000       0.29403000       0.94832000
    12  F          0.28146000       0.70597000       0.05168000
    13  C          0.62495000       0.51674000       0.90723000
    14  C          0.37505000       0.48326000       0.09277000
    15  C          0.73725000       0.73704000       0.03264000
    16  C          0.26275000       0.26296000       0.96736000
    17  C          0.63195000       0.66524000       0.93933000
    18  C          0.36805000       0.33476000       0.06067000
    19  C          0.83085000       0.50284000       0.07043000
    20  C          0.16915000       0.49716000       0.92957000
    21  C          0.72615000       0.43934000       0.97573000
    22  C          0.27385000       0.56066000       0.02427000
    23  C          0.83835000       0.65274000       0.09613000
    24  C          0.16165000       0.34726000       0.90387000
    25  O          0.27095000       0.25375000       0.56383000
    26  O          0.72905000       0.74625000       0.43617000
    27  N          0.15815000       0.16844000       0.30263000
    28  N          0.84185000       0.83156000       0.69737000
    29  C         -0.01775000       0.25844000       0.47343000
    30  C          0.01775000       0.74156000       0.52657000
    31  C          0.84515000       0.20365000       0.38793000
    32  C          0.15485000       0.79635000       0.61207000
    33  H          0.86201900       0.13846600       0.33366700
    34  H          0.13798100       0.86153400       0.66633300
    35  C          0.20105000       0.12914000       0.39763000
    36  C          0.79895000       0.87086000       0.60237000
    37  C          0.29046000       0.01085000       0.41974000
    38  C          0.70954000      -0.01085000       0.58026000
    39  H          0.31825000      -0.01438000       0.48748400
    40  H          0.68175000       0.01438000       0.51251600
    41  C          0.15855000       0.21845000       0.48374000
    42  C          0.84145000       0.78155000       0.51626000
    43  C          0.20796000       0.09035000       0.22924000
    44  C          0.79204000       0.90965000       0.77076000
    45  H          0.18078300       0.11819300       0.16211900
    46  H          0.81921700       0.88180700       0.83788100
    47  C          0.65844000       0.33845000       0.46284000
    48  C          0.34156000       0.66155000       0.53716000
    49  H          0.54824900       0.36693200       0.45886200
    50  H          0.45175100       0.63306800       0.54113800
    51  C          0.68264000       0.24506000       0.38234000
    52  C          0.31736000       0.75494000       0.61766000
    53  H          0.58924200       0.20940800       0.32366400
    54  H          0.41075800       0.79059200       0.67633600
    55  C          0.95494000       0.35085000       0.55394000
    56  C          0.04506000       0.64915000       0.44606000
    57  H          0.04773900       0.38698600       0.61282400
    58  H          0.95226100       0.61301400       0.38717600
    59  C          0.29646000       0.97185000       0.24504000
    60  C          0.70354000       0.02815000       0.75496000
    61  H          0.32804700       0.91965500       0.19020700
    62  H          0.67195300       0.08034500       0.80979300
    63  C          0.33776000       0.93135000       0.34324000
    64  C          0.66224000       0.06865000       0.65676000
    65  H          0.39753100       0.85011800       0.35687200
    66  H          0.60246900       0.14988200       0.64312800
    67  C          0.79374000       0.38996000       0.54834000
    68  C          0.20626000       0.61004000       0.45166000
    69  H          0.77587700       0.45251600       0.60347100
    70  H          0.22412300       0.54748400       0.39652900
