data_WEDDOZ
_symmetry_space_group_name_H-M    'P1'
_symmetry_Int_Tables_number       1
loop_
_symmetry_equiv_pos_site_id
_symmetry_equiv_pos_as_xyz
1 x,y,z
_cell_length_a                   13.8064
_cell_length_b                   8.0052
_cell_length_c                   19.4355
_cell_angle_alpha                90.0
_cell_angle_beta                 106.8554
_cell_angle_gamma                90.0
loop_
_atom_site_label
_atom_site_type_symbol
_atom_site_fract_x
_atom_site_fract_y
_atom_site_fract_z
     1  Cl         0.62936130       0.57562000       0.28446900
     2  Cl         0.37063870       0.07562000       0.21553100
     3  Cl         0.37063870       0.42438000       0.71553100
     4  Cl         0.62936130       0.92438000       0.78446900
     5  O          0.02094000       0.24977000       0.22493000
     6  O          0.97906000       0.74977000       0.27507000
     7  O          0.97906000       0.75023000       0.77507000
     8  O          0.02094000       0.25023000       0.72493000
     9  O          0.22363000       0.03226000       0.44882000
    10  O          0.77637000       0.53226000       0.05118000
    11  O          0.77637000       0.96774000       0.55118000
    12  O          0.22363000       0.46774000       0.94882000
    13  O          0.34824000       0.88236000       0.55132000
    14  O          0.65176000       0.38236000       0.94868000
    15  O          0.65176000       0.11764000       0.44868000
    16  O          0.34824000       0.61764000       0.05132000
    17  H          0.29750000       0.93670000       0.53160000
    18  H          0.70250000       0.43670000       0.96840000
    19  H          0.70250000       0.06330000       0.46840000
    20  H          0.29750000       0.56330000       0.03160000
    21  O          0.51274000       0.70416000       0.59952000
    22  O          0.48726000       0.20416000       0.90048000
    23  O          0.48726000       0.29584000       0.40048000
    24  O          0.51274000       0.79584000       0.09952000
    25  H          0.56660000       0.65330000       0.61060000
    26  H          0.43340000       0.15330000       0.88940000
    27  H          0.43340000       0.34670000       0.38940000
    28  H          0.56660000       0.84670000       0.11060000
    29  O          0.66904000       0.57036000       0.57942000
    30  O          0.33096000       0.07036000       0.92058000
    31  O          0.33096000       0.42964000       0.42058000
    32  O          0.66904000       0.92964000       0.07942000
    33  O          0.88784000       0.63127000       0.43993000
    34  O          0.11216000       0.13127000       0.06007000
    35  O          0.11216000       0.36873000       0.56007000
    36  O          0.88784000       0.86873000       0.93993000
    37  N          0.25604000       0.07607000       0.34343000
    38  N          0.74396000       0.57607000       0.15657000
    39  N          0.74396000       0.92393000       0.65657000
    40  N          0.25604000       0.42393000       0.84343000
    41  H          0.29330000       0.05170000       0.31620000
    42  H          0.70670000       0.55170000       0.18380000
    43  H          0.70670000       0.94830000       0.68380000
    44  H          0.29330000       0.44830000       0.81620000
    45  N          0.68814000       0.54647000       0.46773000
    46  N          0.31186000       0.04647000       0.03227000
    47  N          0.31186000       0.45353000       0.53227000
    48  N          0.68814000       0.95353000       0.96773000
    49  H          0.66220000       0.56510000       0.42250000
    50  H          0.33780000       0.06510000       0.07750000
    51  H          0.33780000       0.43490000       0.57750000
    52  H          0.66220000       0.93490000       0.92250000
    53  C          0.94424000       0.20001200       0.16324000
    54  C          0.05576000       0.70001200       0.33676000
    55  C          0.05576000       0.79998800       0.83676000
    56  C          0.94424000       0.29998800       0.66324000
    57  H          0.89970000       0.29240000       0.14550000
    58  H          0.10030000       0.79240000       0.35450000
    59  H          0.10030000       0.70760000       0.85450000
    60  H          0.89970000       0.20760000       0.64550000
    61  H          0.90660000       0.10940000       0.17520000
    62  H          0.09340000       0.60940000       0.32480000
    63  H          0.09340000       0.89060000       0.82480000
    64  H          0.90660000       0.39060000       0.67520000
    65  H          0.97420000       0.16440000       0.12680000
    66  H          0.02580000       0.66440000       0.37320000
    67  H          0.02580000       0.83560000       0.87320000
    68  H          0.97420000       0.33560000       0.62680000
    69  C          0.09635000       0.12521000       0.24964000
    70  C          0.90365000       0.62521000       0.25036000
    71  C          0.90365000       0.87479000       0.75036000
    72  C          0.09635000       0.37479000       0.74964000
    73  H          0.12920000       0.10100000       0.21300000
    74  H          0.87080000       0.60100000       0.28700000
    75  H          0.87080000       0.89900000       0.78700000
    76  H          0.12920000       0.39900000       0.71300000
    77  H          0.06580000       0.02300000       0.26050000
    78  H          0.93420000       0.52300000       0.23950000
    79  H          0.93420000       0.97700000       0.73950000
    80  H          0.06580000       0.47700000       0.76050000
    81  C          0.17155000       0.19041000       0.31584000
    82  C          0.82845000       0.69041000       0.18416000
    83  C          0.82845000       0.80959000       0.68416000
    84  C          0.17155000       0.30959000       0.81584000
    85  H          0.19720000       0.29690000       0.30500000
    86  H          0.80280000       0.79690000       0.19500000
    87  H          0.80280000       0.70310000       0.69500000
    88  H          0.19720000       0.20310000       0.80500000
    89  H          0.13800000       0.20910000       0.35260000
    90  H          0.86200000       0.70910000       0.14740000
    91  H          0.86200000       0.79090000       0.64740000
    92  H          0.13800000       0.29090000       0.85260000
    93  C          0.27855000       0.00759000       0.40834000
    94  C          0.72145000       0.50759000       0.09166000
    95  C          0.72145000      -0.00759000       0.59166000
    96  C          0.27855000       0.49241000       0.90834000
    97  C          0.37055000       0.90139000       0.43224000
    98  C          0.62945000       0.40139000       0.06776000
    99  C          0.62945000       0.09861000       0.56776000
   100  C          0.37055000       0.59861000       0.93224000
   101  C          0.39905000       0.84609000       0.50303000
   102  C          0.60095000       0.34609000      -0.00303000
   103  C          0.60095000       0.15391000       0.49697000
   104  C          0.39905000       0.65391000       0.00303000
   105  C          0.48885000       0.74829000       0.53003000
   106  C          0.51115000       0.24829000       0.96997000
   107  C          0.51115000       0.25171000       0.46997000
   108  C          0.48885000       0.75171000       0.03003000
   109  C          0.54585000       0.70479000       0.48433000
   110  C          0.45415000       0.20479000       0.01567000
   111  C          0.45415000       0.29521000       0.51567000
   112  C          0.54585000       0.79521000       0.98433000
   113  C          0.51445000       0.76249000       0.41254000
   114  C          0.48555000       0.26249000       0.08746000
   115  C          0.48555000       0.23751000       0.58746000
   116  C          0.51445000       0.73751000       0.91254000
   117  H          0.55200000       0.73470000       0.38140000
   118  H          0.44800000       0.23470000       0.11860000
   119  H          0.44800000       0.26530000       0.61860000
   120  H          0.55200000       0.76530000       0.88140000
   121  C          0.43015000       0.85809000       0.38844000
   122  C          0.56985000       0.35809000       0.11156000
   123  C          0.56985000       0.14191000       0.61156000
   124  C          0.43015000       0.64191000       0.88844000
   125  H          0.41170000       0.89570000       0.34110000
   126  H          0.58830000       0.39570000       0.15890000
   127  H          0.58830000       0.10430000       0.65890000
   128  H          0.41170000       0.60430000       0.84110000
   129  C          0.63835000       0.60189000       0.51374000
   130  C          0.36165000       0.10189000       0.98626000
   131  C          0.36165000       0.39811000       0.48626000
   132  C          0.63835000       0.89811000       0.01374000
   133  C          0.78245000       0.45769000       0.49104000
   134  C          0.21755000       0.95769000       0.00896000
   135  C          0.21755000       0.54231000       0.50896000
   136  C          0.78245000       0.04231000       0.99104000
   137  H          0.78490000       0.37660000       0.45440000
   138  H          0.21510000       0.87660000       0.04560000
   139  H          0.21510000       0.62340000       0.54560000
   140  H          0.78490000       0.12340000       0.95440000
   141  H          0.78490000       0.39660000       0.53460000
   142  H          0.21510000       0.89660000       0.96540000
   143  H          0.21510000       0.60340000       0.46540000
   144  H          0.78490000       0.10340000       0.03460000
   145  C          0.87395000       0.56801000       0.50524000
   146  C          0.12605000       0.06801000      -0.00524000
   147  C          0.12605000       0.43199000       0.49476000
   148  C          0.87395000       0.93199000       0.00524000
   149  H          0.86640000       0.66080000       0.53530000
   150  H          0.13360000       0.16080000       0.96470000
   151  H          0.13360000       0.33920000       0.46470000
   152  H          0.86640000       0.83920000       0.03530000
   153  H          0.93340000       0.50510000       0.53100000
   154  H          0.06660000       0.00510000       0.96900000
   155  H          0.06660000       0.49490000       0.46900000
   156  H          0.93340000      -0.00510000       0.03100000
   157  C          0.85166000       0.78971100       0.42035000
   158  C          0.14834000       0.28971100       0.07965000
   159  C          0.14834000       0.21028900       0.57965000
   160  C          0.85166000       0.71028900       0.92035000
   161  H          0.86350000       0.81900000       0.37550000
   162  H          0.13650000       0.31900000       0.12450000
   163  H          0.13650000       0.18100000       0.62450000
   164  H          0.86350000       0.68100000       0.87550000
   165  H          0.88590000       0.86770000       0.45670000
   166  H          0.11410000       0.36770000       0.04330000
   167  H          0.11410000       0.13230000       0.54330000
   168  H          0.88590000       0.63230000       0.95670000
   169  H          0.78030000       0.79300000       0.41490000
   170  H          0.21970000       0.29300000       0.08510000
   171  H          0.21970000       0.20700000       0.58510000
   172  H          0.78030000       0.70700000       0.91490000
   173  C          0.80894000       0.14607000       0.36093000
   174  C          0.19106000       0.64607000       0.13907000
   175  C          0.19106000       0.85393000       0.63907000
   176  C          0.80894000       0.35393000       0.86093000
   177  H          0.76840000       0.22020000       0.38080000
   178  H          0.23160000       0.72020000       0.11920000
   179  H          0.23160000       0.77980000       0.61920000
   180  H          0.76840000       0.27980000       0.88080000
   181  H          0.80460000       0.03480000       0.37970000
   182  H          0.19540000       0.53480000       0.12030000
   183  H          0.19540000       0.96520000       0.62030000
   184  H          0.80460000       0.46520000       0.87970000
   185  O          0.76927000       0.14321100       0.28566000
   186  O          0.23073000       0.64321100       0.21434000
   187  O          0.23073000       0.85678900       0.71434000
   188  O          0.76927000       0.35678900       0.78566000
   189  C          0.90887000       0.19861300       0.38295000
   190  C          0.09113000       0.69861300       0.11705000
   191  C          0.09113000       0.80138700       0.61705000
   192  C          0.90887000       0.30138700       0.88295000
   193  H          0.93300000       0.19730000       0.43440000
   194  H          0.06700000       0.69730000       0.06560000
   195  H          0.06700000       0.80270000       0.56560000
   196  H          0.93300000       0.30270000       0.93440000
   197  H          0.91320000       0.31010000       0.36580000
   198  H          0.08680000       0.81010000       0.13420000
   199  H          0.08680000       0.68990000       0.63420000
   200  H          0.91320000       0.18990000       0.86580000
   201  H          0.94930000       0.12500000       0.36370000
   202  H          0.05070000       0.62500000       0.13630000
   203  H          0.05070000       0.87500000       0.63630000
   204  H          0.94930000       0.37500000       0.86370000
   205  C          0.65975000       0.07981000       0.26584000
   206  C          0.34025000       0.57981000       0.23416000
   207  C          0.34025000       0.92019000       0.73416000
   208  C          0.65975000       0.42019000       0.76584000
   209  H          0.63040000       0.08410000       0.21410000
   210  H          0.36960000       0.58410000       0.28590000
   211  H          0.36960000       0.91590000       0.78590000
   212  H          0.63040000       0.41590000       0.71410000
   213  H          0.65920000       0.96430000       0.28090000
   214  H          0.34080000       0.46430000       0.21910000
   215  H          0.34080000       0.03570000       0.71910000
   216  H          0.65920000       0.53570000       0.78090000
   217  C          0.59834000       0.18088000       0.30043000
   218  C          0.40166000       0.68088000       0.19957000
   219  C          0.40166000       0.81912000       0.69957000
   220  C          0.59834000       0.31912000       0.80043000
   221  H          0.52850000       0.14910000       0.28180000
   222  H          0.47150000       0.64910000       0.21820000
   223  H          0.47150000       0.85090000       0.71820000
   224  H          0.52850000       0.35090000       0.78180000
   225  H          0.60560000       0.29690000       0.29050000
   226  H          0.39440000       0.79690000       0.20950000
   227  H          0.39440000       0.70310000       0.70950000
   228  H          0.60560000       0.20310000       0.79050000
   229  H          0.62050000       0.16250000       0.35140000
   230  H          0.37950000       0.66250000       0.14860000
   231  H          0.37950000       0.83750000       0.64860000
   232  H          0.62050000       0.33750000       0.85140000
