data_WEDKUN
_symmetry_space_group_name_H-M    'P1'
_symmetry_Int_Tables_number       1
loop_
_symmetry_equiv_pos_site_id
_symmetry_equiv_pos_as_xyz
1 x,y,z
_cell_length_a                   5.24873
_cell_length_b                   29.263318
_cell_length_c                   7.23575
_cell_angle_alpha                90.0
_cell_angle_beta                 104.9583
_cell_angle_gamma                90.0
loop_
_atom_site_label
_atom_site_type_symbol
_atom_site_fract_x
_atom_site_fract_y
_atom_site_fract_z
     1  N          0.52842000       0.63776300       0.28266150
     2  N          0.47158000       0.13776300       0.21733850
     3  N          0.47158000       0.36223700       0.71733850
     4  N          0.52842000       0.86223700       0.78266150
     5  C          0.76522000       0.64913400       0.38976170
     6  C          0.23478000       0.14913400       0.11023830
     7  C          0.23478000       0.35086600       0.61023830
     8  C          0.76522000       0.85086600       0.88976170
     9  N          0.94242000       0.61615400       0.45322190
    10  N          0.05758000       0.11615400       0.04677810
    11  N          0.05758000       0.38384600       0.54677810
    12  N          0.94242000       0.88384600       0.95322190
    13  H          0.90230000       0.58667000       0.42220000
    14  H          0.09770000       0.08667000       0.07780000
    15  H          0.09770000       0.41333000       0.57780000
    16  H          0.90230000       0.91333000       0.92220000
    17  H          0.08940000       0.62327000       0.52430000
    18  H          0.91060000       0.12327000       0.97570000
    19  H          0.91060000       0.37673000       0.47570000
    20  H          0.08940000       0.87673000       0.02430000
    21  C          0.82632000       0.69549400       0.43246190
    22  C          0.17368000       0.19549400       0.06753810
    23  C          0.17368000       0.30450600       0.56753810
    24  C          0.82632000       0.80450600       0.93246190
    25  H         -0.00800000       0.70310000       0.50910000
    26  H          0.00800000       0.20310000      -0.00910000
    27  H          0.00800000       0.29690000       0.49090000
    28  H         -0.00800000       0.79690000       0.00910000
    29  N          0.65602000       0.72807300       0.36709180
    30  N          0.34398000       0.22807300       0.13290820
    31  N          0.34398000       0.27192700       0.63290820
    32  N          0.65602000       0.77192700       0.86709180
    33  C          0.41943000       0.71620400       0.25772000
    34  C          0.58057000       0.21620400       0.24228000
    35  C          0.58057000       0.28379600       0.74228000
    36  C          0.41943000       0.78379600       0.75772000
    37  H          0.29550000       0.73870000       0.20830000
    38  H          0.70450000       0.23870000       0.29170000
    39  H          0.70450000       0.26130000       0.79170000
    40  H          0.29550000       0.76130000       0.70830000
    41  C          0.35762000       0.67156400       0.21802000
    42  C          0.64238000       0.17156400       0.28198000
    43  C          0.64238000       0.32843600       0.78198000
    44  C          0.35762000       0.82843600       0.71802000
    45  H          0.19030000       0.66430000       0.14310000
    46  H          0.80970000       0.16430000       0.35690000
    47  H          0.80970000       0.33570000       0.85690000
    48  H          0.19030000       0.83570000       0.64310000
    49  C          0.44462000       0.51950400       0.24735180
    50  C          0.55538000       0.01950400       0.25264820
    51  C          0.55538000       0.48049600       0.75264820
    52  C          0.44462000       0.98049600       0.74735180
    53  O          0.29592000       0.55605300       0.20216170
    54  O          0.70408000       0.05605300       0.29783830
    55  O          0.70408000       0.44394700       0.79783830
    56  O          0.29592000       0.94394700       0.70216170
    57  H          0.38740000       0.58297000       0.23330000
    58  H          0.61260000       0.08297000       0.26670000
    59  H          0.61260000       0.41703000       0.76670000
    60  H          0.38740000       0.91703000       0.73330000
    61  O          0.67502000       0.52138300       0.32653170
    62  O          0.32498000       0.02138300       0.17346830
    63  O          0.32498000       0.47861700       0.67346830
    64  O          0.67502000       0.97861700       0.82653170
    65  C          0.29062000       0.47694400       0.18588190
    66  C          0.70938000       0.97694400       0.31411810
    67  C          0.70938000       0.52305600       0.81411810
    68  C          0.29062000       0.02305600       0.68588190
    69  H          0.21360000       0.47860000       0.04890000
    70  H          0.78640000       0.97860000       0.45110000
    71  H          0.78640000       0.52140000       0.95110000
    72  H          0.21360000       0.02140000       0.54890000
    73  H          0.14650000       0.47600000       0.24700000
    74  H          0.85350000       0.97600000       0.25300000
    75  H          0.85350000       0.52400000       0.75300000
    76  H          0.14650000       0.02400000       0.74700000
    77  C          0.44252000       0.43271400       0.22925180
    78  C          0.55748000       0.93271400       0.27074820
    79  C          0.55748000       0.56728600       0.77074820
    80  C          0.44252000       0.06728600       0.72925180
    81  H          0.49380000       0.42750000       0.36630000
    82  H          0.50620000       0.92750000       0.13370000
    83  H          0.50620000       0.57250000       0.63370000
    84  H          0.49380000       0.07250000       0.86630000
    85  H          0.60120000       0.43440000       0.18440000
    86  H          0.39880000       0.93440000       0.31560000
    87  H          0.39880000       0.56560000       0.81560000
    88  H          0.60120000       0.06560000       0.68440000
    89  C          0.27012000       0.39395400       0.13017180
    90  C          0.72988000       0.89395400       0.36982820
    91  C          0.72988000       0.60604600       0.86982820
    92  C          0.27012000       0.10604600       0.63017180
    93  H          0.10490000       0.39500000       0.16670000
    94  H          0.89510000       0.89500000       0.33330000
    95  H          0.89510000       0.60500000       0.83330000
    96  H          0.10490000       0.10500000       0.66670000
    97  H          0.23000000       0.39910000      -0.00680000
    98  H          0.77000000       0.89910000       0.50680000
    99  H          0.77000000       0.60090000       0.00680000
   100  H          0.23000000       0.10090000       0.49320000
   101  C          0.38282000       0.34706400       0.17072170
   102  C          0.61718000       0.84706400       0.32927830
   103  C          0.61718000       0.65293600       0.82927830
   104  C          0.38282000       0.15293600       0.67072170
   105  O          0.22094190       0.31586300       0.07598160
   106  O          0.77905810       0.81586300       0.42401840
   107  O          0.77905810       0.68413700       0.92401840
   108  O          0.22094190       0.18413700       0.57598160
   109  H          0.29240000       0.28577000       0.09930000
   110  H          0.70760000       0.78577000       0.40070000
   111  H          0.70760000       0.71423000       0.90070000
   112  H          0.29240000       0.21423000       0.59930000
   113  O          0.59359190       0.33797300       0.27691150
   114  O          0.40640810       0.83797300       0.22308850
   115  O          0.40640810       0.66202700       0.72308850
   116  O          0.59359190       0.16202700       0.77691150
