data_WEDLAU
_symmetry_space_group_name_H-M    'P1'
_symmetry_Int_Tables_number       1
loop_
_symmetry_equiv_pos_site_id
_symmetry_equiv_pos_as_xyz
1 x,y,z
_cell_length_a                   5.02315
_cell_length_b                   34.3083
_cell_length_c                   7.43778
_cell_angle_alpha                90.0
_cell_angle_beta                 102.8505
_cell_angle_gamma                90.0
loop_
_atom_site_label
_atom_site_type_symbol
_atom_site_fract_x
_atom_site_fract_y
_atom_site_fract_z
     1  N          0.52498170       0.34435200       0.30554130
     2  N          0.47501830       0.84435200       0.19445870
     3  N          0.47501830       0.65564800       0.69445870
     4  N          0.52498170       0.15564800       0.80554130
     5  C          0.76334190       0.33476300       0.41596140
     6  C          0.23665810       0.83476300       0.08403860
     7  C          0.23665810       0.66523700       0.58403860
     8  C          0.76334190       0.16523700       0.91596140
     9  N          0.94082190       0.36314200       0.48335150
    10  N          0.05917810       0.86314200       0.01664850
    11  N          0.05917810       0.63685800       0.51664850
    12  N          0.94082190       0.13685800      -0.01664850
    13  H          0.89730000       0.38865000       0.44920000
    14  H          0.10270000       0.88865000       0.05080000
    15  H          0.10270000       0.61135000       0.55080000
    16  H          0.89730000       0.11135000       0.94920000
    17  H          0.10140000       0.35705000       0.56030000
    18  H          0.89860000       0.85705000       0.93970000
    19  H          0.89860000       0.64295000       0.43970000
    20  H          0.10140000       0.14295000       0.06030000
    21  C          0.82452000       0.29506300       0.45854160
    22  C          0.17548000       0.79506300       0.04145840
    23  C          0.17548000       0.70493700       0.54145840
    24  C          0.82452000       0.20493700       0.95854160
    25  H         -0.00620000       0.28850000       0.53840000
    26  H          0.00620000       0.78850000       0.96160000
    27  H          0.00620000       0.71150000       0.46160000
    28  H         -0.00620000       0.21150000       0.03840000
    29  N          0.65328190       0.26709200       0.39056140
    30  N          0.34671810       0.76709200       0.10943860
    31  N          0.34671810       0.73290800       0.60943860
    32  N          0.65328190       0.23290800       0.89056140
    33  C          0.41462000       0.27705300       0.27829180
    34  C          0.58538000       0.77705300       0.22170820
    35  C          0.58538000       0.72294700       0.72170820
    36  C          0.41462000       0.22294700       0.77829180
    37  H          0.28770000       0.25740000       0.22640000
    38  H          0.71230000       0.75740000       0.27360000
    39  H          0.71230000       0.74260000       0.77360000
    40  H          0.28770000       0.24260000       0.72640000
    41  C          0.35322000       0.31536300       0.23824170
    42  C          0.64678000       0.81536300       0.26175830
    43  C          0.64678000       0.68463700       0.76175830
    44  C          0.35322000       0.18463700       0.73824170
    45  H          0.18220000       0.32160000       0.15970000
    46  H          0.81780000       0.82160000       0.34030000
    47  H          0.81780000       0.67840000       0.84030000
    48  H          0.18220000       0.17840000       0.65970000
    49  C          0.46102000       0.44470300       0.27211150
    50  C          0.53898000       0.94470300       0.22788850
    51  C          0.53898000       0.55529700       0.72788850
    52  C          0.46102000       0.05529700       0.77211150
    53  O          0.30296170       0.41417200       0.22034130
    54  O          0.69703830       0.91417200       0.27965870
    55  O          0.69703830       0.58582800       0.77965870
    56  O          0.30296170       0.08582800       0.72034130
    57  H          0.40140000       0.39085000       0.25530000
    58  H          0.59860000       0.89085000       0.24470000
    59  H          0.59860000       0.60915000       0.74470000
    60  H          0.40140000       0.10915000       0.75530000
    61  O          0.69720160       0.44225200       0.35297130
    62  O          0.30279840       0.94225200       0.14702870
    63  O          0.30279840       0.55774800       0.64702870
    64  O          0.69720160       0.05774800       0.85297130
    65  C          0.31072000       0.48218300       0.21970160
    66  C          0.68928000       0.98218300       0.28029840
    67  C          0.68928000       0.51781700       0.78029840
    68  C          0.31072000       0.01781700       0.71970160
    69  H          0.16730000       0.48450000       0.29140000
    70  H          0.83270000       0.98450000       0.20860000
    71  H          0.83270000       0.51550000       0.70860000
    72  H          0.16730000       0.01550000       0.79140000
    73  H          0.21770000       0.48070000       0.08770000
    74  H          0.78230000       0.98070000       0.41230000
    75  H          0.78230000       0.51930000       0.91230000
    76  H          0.21770000       0.01930000       0.58770000
    77  C          0.48202000       0.51879300       0.24919150
    78  C          0.51798000       0.01879300       0.25080850
    79  C          0.51798000       0.48120700       0.75080850
    80  C          0.48202000       0.98120700       0.74919150
    81  H          0.63620000       0.51610000       0.18720000
    82  H          0.36380000       0.01610000       0.31280000
    83  H          0.36380000       0.48390000       0.81280000
    84  H          0.63620000       0.98390000       0.68720000
    85  H          0.55840000       0.52250000       0.38270000
    86  H          0.44160000       0.02250000       0.11730000
    87  H          0.44160000       0.47750000       0.61730000
    88  H          0.55840000       0.97750000       0.88270000
    89  C          0.31202000       0.55410300       0.17272150
    90  C          0.68798000       0.05410300       0.32727850
    91  C          0.68798000       0.44589700       0.82727850
    92  C          0.31202000       0.94589700       0.67272150
    93  H          0.24660000       0.55070000       0.03790000
    94  H          0.75340000       0.05070000       0.46210000
    95  H          0.75340000       0.44930000       0.96210000
    96  H          0.24660000       0.94930000       0.53790000
    97  H          0.14950000       0.55500000       0.22730000
    98  H          0.85050000       0.05500000       0.27270000
    99  H          0.85050000       0.44500000       0.77270000
   100  H          0.14950000       0.94500000       0.72730000
   101  C          0.45912000       0.59294300       0.20779150
   102  C          0.54088000       0.09294300       0.29220850
   103  C          0.54088000       0.40705700       0.79220850
   104  C          0.45912000       0.90705700       0.70779150
   105  H          0.50570000       0.59840000       0.34190000
   106  H          0.49430000       0.09840000       0.15810000
   107  H          0.49430000       0.40160000       0.65810000
   108  H          0.50570000       0.90160000       0.84190000
   109  H          0.63120000       0.59180000       0.16400000
   110  H          0.36880000       0.09180000       0.33600000
   111  H          0.36880000       0.40820000       0.83600000
   112  H          0.63120000       0.90820000       0.66400000
   113  C          0.28042000       0.62543300       0.10831150
   114  C          0.71958000       0.12543300       0.39168850
   115  C          0.71958000       0.37456700       0.89168850
   116  C          0.28042000       0.87456700       0.60831150
   117  H          0.25110000       0.62080000       0.97390000
   118  H          0.74890000       0.12080000       0.52610000
   119  H          0.74890000       0.37920000       0.02610000
   120  H          0.25110000       0.87920000       0.47390000
   121  H          0.10000000       0.62380000       0.14080000
   122  H          0.90000000       0.12380000       0.35920000
   123  H          0.90000000       0.37620000       0.85920000
   124  H          0.10000000       0.87620000       0.64080000
   125  C          0.38852000       0.66597300       0.14838150
   126  C          0.61148000       0.16597300       0.35161850
   127  C          0.61148000       0.33402700       0.85161850
   128  C          0.38852000       0.83402700       0.64838150
   129  O          0.22284160       0.69220200       0.05356130
   130  O          0.77715840       0.19220200       0.44643870
   131  O          0.77715840       0.30779800       0.94643870
   132  O          0.22284160       0.80779800       0.55356130
   133  H          0.28840000       0.71906000       0.08330000
   134  H          0.71160000       0.21906000       0.41670000
   135  H          0.71160000       0.28094000       0.91670000
   136  H          0.28840000       0.78094000       0.58330000
   137  O          0.59968160       0.67442200       0.25528120
   138  O          0.40031840       0.17442200       0.24471880
   139  O          0.40031840       0.32557800       0.74471880
   140  O          0.59968160       0.82557800       0.75528120
