data_WEDXOV
_symmetry_space_group_name_H-M    'P1'
_symmetry_Int_Tables_number       1
loop_
_symmetry_equiv_pos_site_id
_symmetry_equiv_pos_as_xyz
1 x,y,z
_cell_length_a                   5.21648
_cell_length_b                   5.73791
_cell_length_c                   16.4633
_cell_angle_alpha                98.2855
_cell_angle_beta                 90.0495
_cell_angle_gamma                102.8445
loop_
_atom_site_label
_atom_site_type_symbol
_atom_site_fract_x
_atom_site_fract_y
_atom_site_fract_z
     1  O          0.27746000       0.64755000       0.06337190
     2  O          0.72254000       0.35245000       0.93662810
     3  N          0.27387000       0.24946000       0.04042000
     4  N          0.72613000       0.75054000       0.95958000
     5  H          0.40300000       0.26940000       0.00780000
     6  H          0.59700000       0.73060000      -0.00780000
     7  H          0.20230000       0.10690000       0.05060000
     8  H          0.79770000       0.89310000       0.94940000
     9  N          0.86247000       0.15656000       0.13982000
    10  N          0.13753000       0.84344000       0.86018000
    11  N          0.67207000       0.53276000       0.22622000
    12  N          0.32793000       0.46724000       0.77378000
    13  C          0.18508000       0.43817000       0.07502000
    14  C          0.81492000       0.56183000       0.92498000
    15  C          0.96387000       0.38626000       0.13192000
    16  C          0.03613000       0.61374000       0.86808000
    17  C          0.66459000       0.11817000       0.19043000
    18  C          0.33541000       0.88183000       0.80957000
    19  H          0.58600000       0.96010000       0.19710000
    20  H          0.41400000       0.03990000       0.80290000
    21  C          0.57199000       0.30497000       0.23323000
    22  C          0.42801000       0.69503000       0.76677000
    23  H          0.43380000       0.26910000       0.26830000
    24  H          0.56620000       0.73090000       0.73170000
    25  C          0.86719000       0.57117000       0.17443000
    26  C          0.13281000       0.42883000       0.82557000
    27  H          0.94110000       0.72900000       0.16660000
    28  H          0.05890000       0.27100000       0.83340000
    29  Br         0.34590100       0.75822800       0.35967300
    30  Br         0.65409900       0.24177200       0.64032700
    31  F          0.01646000       0.12865000       0.34781170
    32  F         -0.01646000       0.87135000       0.65218830
    33  F          0.73625000       0.32945000       0.46220180
    34  F          0.26375000       0.67055000       0.53779820
    35  C          0.14588000       0.89477000       0.43993000
    36  C          0.85412000       0.10523000       0.56007000
    37  C          0.01118000       0.06377000       0.42332000
    38  C         -0.01118000       0.93623000       0.57668000
    39  C          0.86702000       0.16757000       0.48243000
    40  C          0.13298000       0.83243000       0.51757000
