data_WEDXIP
_symmetry_space_group_name_H-M    'P1'
_symmetry_Int_Tables_number       1
loop_
_symmetry_equiv_pos_site_id
_symmetry_equiv_pos_as_xyz
1 x,y,z
_cell_length_a                   16.54375
_cell_length_b                   31.40619
_cell_length_c                   4.484401
_cell_angle_alpha                90.0
_cell_angle_beta                 90.0
_cell_angle_gamma                90.0
loop_
_atom_site_label
_atom_site_type_symbol
_atom_site_fract_x
_atom_site_fract_y
_atom_site_fract_z
     1  O          0.88669000       0.63496000       0.30540000
     2  O          0.11331000       0.36504000       0.80540000
     3  O          0.38669000       0.86504000       0.30540000
     4  O          0.61331000       0.13496000       0.80540000
     5  N          0.11369000       0.74854000       0.21930000
     6  N          0.88631000       0.25146000       0.71930000
     7  N          0.61369000       0.75146000       0.21930000
     8  N          0.38631000       0.24854000       0.71930000
     9  C          0.09189000       0.71244000       0.02560000
    10  C          0.90811000       0.28756000       0.52560000
    11  C          0.59189000       0.78756000       0.02560000
    12  C          0.40811000       0.21244000       0.52560000
    13  H          0.13920000       0.70290000       0.91680000
    14  H          0.86080000       0.29710000       0.41680000
    15  H          0.63920000       0.79710000       0.91680000
    16  H          0.36080000       0.20290000       0.41680000
    17  H          0.05170000       0.72150000       0.88090000
    18  H          0.94830000       0.27850000       0.38090000
    19  H          0.55170000       0.77850000       0.88090000
    20  H          0.44830000       0.22150000       0.38090000
    21  O          0.98742000       0.77524000       0.17130000
    22  O          0.01258000       0.22476000       0.67130000
    23  O          0.48742000       0.72476000       0.17130000
    24  O          0.51258000       0.27524000       0.67130000
    25  N          0.07298000       0.81024000       0.47840000
    26  N          0.92702000       0.18976000      -0.02160000
    27  N          0.57298000       0.68976000       0.47840000
    28  N          0.42702000       0.31024000      -0.02160000
    29  C          0.05751200       0.67505000       0.21240000
    30  C          0.94248800       0.32495000       0.71240000
    31  C          0.55751200       0.82495000       0.21240000
    32  C          0.44248800       0.17505000       0.71240000
    33  H          0.09720000       0.66610000       0.35860000
    34  H          0.90280000       0.33390000       0.85860000
    35  H          0.59720000       0.83390000       0.35860000
    36  H          0.40280000       0.16610000       0.85860000
    37  H          0.00950000       0.68430000       0.31820000
    38  H          0.99050000       0.31570000       0.81820000
    39  H          0.50950000       0.81570000       0.31820000
    40  H          0.49050000       0.18430000       0.81820000
    41  O          0.24038000       0.71993000       0.27430000
    42  O          0.75962000       0.28007000       0.77430000
    43  O          0.74038000       0.78007000       0.27430000
    44  O          0.25962000       0.21993000       0.77430000
    45  N          0.17339000       0.84014000       0.80440000
    46  N          0.82661000       0.15986000       0.30440000
    47  N          0.67339000       0.65986000       0.80440000
    48  N          0.32661000       0.34014000       0.30440000
    49  C          0.03639000       0.63783000       0.01360000
    50  C          0.96361000       0.36217000       0.51360000
    51  C          0.53639000       0.86217000       0.01360000
    52  C          0.46361000       0.13783000       0.51360000
    53  H          0.08330000       0.63030000       0.89480000
    54  H          0.91670000       0.36970000       0.39480000
    55  H          0.58330000       0.86970000       0.89480000
    56  H          0.41670000       0.13030000       0.39480000
    57  H         -0.00620000       0.64630000       0.87700000
    58  H          0.00620000       0.35370000       0.37700000
    59  H          0.49380000       0.85370000       0.87700000
    60  H          0.50620000       0.14630000       0.37700000
    61  N          0.27198000       0.79214000       0.71040000
    62  N          0.72802000       0.20786000       0.21040000
    63  N          0.77198000       0.70786000       0.71040000
    64  N          0.22802000       0.29214000       0.21040000
    65  C          0.00851200       0.59866000       0.18650000
    66  C          0.99148800       0.40134000       0.68650000
    67  C          0.50851200       0.90134000       0.18650000
    68  C          0.49148800       0.09866000       0.68650000
    69  H          0.04800000       0.59240000       0.33980000
    70  H          0.95200000       0.40760000       0.83980000
    71  H          0.54800000       0.90760000       0.33980000
    72  H          0.45200000       0.09240000       0.83980000
    73  H          0.00720000       0.57440000       0.05080000
    74  H         -0.00720000       0.42560000       0.55080000
    75  H          0.50720000       0.92560000       0.05080000
    76  H          0.49280000       0.07440000       0.55080000
    77  C          0.92388400       0.60328000       0.33450000
    78  C          0.07611600       0.39672000       0.83450000
    79  C          0.42388400       0.89672000       0.33450000
    80  C          0.57611600       0.10328000       0.83450000
    81  C          0.89418200       0.56449000       0.47980000
    82  C          0.10581800       0.43551000      -0.02020000
    83  C          0.39418200       0.93551000       0.47980000
    84  C          0.60581800       0.06449000      -0.02020000
    85  H          0.86460000       0.57190000       0.65560000
    86  H          0.13540000       0.42810000       0.15560000
    87  H          0.36460000       0.92810000       0.65560000
    88  H          0.63540000       0.07190000       0.15560000
    89  H          0.93910000       0.54660000       0.53190000
    90  H          0.06090000       0.45340000       0.03190000
    91  H          0.43910000       0.95340000       0.53190000
    92  H          0.56090000       0.04660000       0.03190000
    93  H          0.85930000       0.54930000       0.34450000
    94  H          0.14070000       0.45070000       0.84450000
    95  H          0.35930000       0.95070000       0.34450000
    96  H          0.64070000       0.04930000       0.84450000
    97  C          0.05361100       0.77815000       0.28940000
    98  C          0.94638900       0.22185000       0.78940000
    99  C          0.55361100       0.72185000       0.28940000
   100  C          0.44638900       0.27815000       0.78940000
   101  C          0.01151100       0.84295000       0.54980000
   102  C          0.98848900       0.15705000       0.04980000
   103  C          0.51151100       0.65705000       0.54980000
   104  C          0.48848900       0.34295000       0.04980000
   105  H          0.96140000       0.83580000       0.45280000
   106  H          0.03860000       0.16420000       0.95280000
   107  H          0.46140000       0.66420000       0.45280000
   108  H          0.53860000       0.33580000       0.95280000
   109  H          0.02970000       0.87020000       0.47880000
   110  H          0.97030000       0.12980000      -0.02120000
   111  H          0.52970000       0.62980000       0.47880000
   112  H          0.47030000       0.37020000      -0.02120000
   113  H          0.00340000       0.84410000       0.76060000
   114  H         -0.00340000       0.15590000       0.26060000
   115  H          0.50340000       0.65590000       0.76060000
   116  H          0.49660000       0.34410000       0.26060000
   117  C          0.14761000       0.81104000       0.60040000
   118  C          0.85239000       0.18896000       0.10040000
   119  C          0.64761000       0.68896000       0.60040000
   120  C          0.35239000       0.31104000       0.10040000
   121  C          0.20588000       0.78124000       0.54250000
   122  C          0.79412000       0.21876000       0.04250000
   123  C          0.70588000       0.71876000       0.54250000
   124  C          0.29412000       0.28124000       0.04250000
   125  C          0.19191100       0.74745000       0.33840000
   126  C          0.80808900       0.25255000       0.83840000
   127  C          0.69191100       0.75255000       0.33840000
   128  C          0.30808900       0.24745000       0.83840000
   129  C          0.24821200       0.82675000       0.86440000
   130  C          0.75178800       0.17325000       0.36440000
   131  C          0.74821200       0.67325000       0.86440000
   132  C          0.25178800       0.32675000       0.36440000
   133  H          0.28140000       0.84030000       0.00170000
   134  H          0.71860000       0.15970000       0.50170000
   135  H          0.78140000       0.65970000       0.00170000
   136  H          0.21860000       0.34030000       0.50170000
   137  C          0.34851100       0.77076000       0.72660000
   138  C          0.65148900       0.22924000       0.22660000
   139  C          0.84851100       0.72924000       0.72660000
   140  C          0.15148900       0.27076000       0.22660000
   141  H          0.34190000       0.74400000       0.82700000
   142  H          0.65810000       0.25600000       0.32700000
   143  H          0.84190000       0.75600000       0.82700000
   144  H          0.15810000       0.24400000       0.32700000
   145  H          0.38610000       0.78810000       0.83420000
   146  H          0.61390000       0.21190000       0.33420000
   147  H          0.88610000       0.71190000       0.83420000
   148  H          0.11390000       0.28810000       0.33420000
   149  H          0.36860000       0.76580000       0.52830000
   150  H          0.63140000       0.23420000       0.02830000
   151  H          0.86860000       0.73420000       0.52830000
   152  H          0.13140000       0.26580000       0.02830000
   153  I          0.28989700       0.63695300       0.03504000
   154  I          0.71010300       0.36304700       0.53504000
   155  I          0.78989700       0.86304700       0.03504000
   156  I          0.21010300       0.13695300       0.53504000
   157  F          0.43076000       0.56773000       0.12230000
   158  F          0.56924000       0.43227000       0.62230000
   159  F          0.93076000       0.93227000       0.12230000
   160  F          0.06924000       0.06773000       0.62230000
   161  I          0.33579700       0.42886300       0.51594000
   162  I          0.66420300       0.57113700       0.01594000
   163  I          0.83579700       0.07113700       0.51594000
   164  I          0.16420300       0.92886300       0.01594000
   165  F          0.44746000       0.48863000       0.93430000
   166  F          0.55254000       0.51137000       0.43430000
   167  F          0.94746000       0.01137000       0.93430000
   168  F          0.05254000       0.98863000       0.43430000
   169  F          0.20077000       0.50044000       0.41930000
   170  F          0.79923000       0.49956000       0.91930000
   171  F          0.70077000      -0.00044000       0.41930000
   172  F          0.29923000       0.00044000       0.91930000
   173  F          0.18117000       0.57763000       0.61830000
   174  F          0.81883000       0.42237000       0.11830000
   175  F          0.68117000       0.92237000       0.61830000
   176  F          0.31883000       0.07763000       0.11830000
   177  C          0.30411100       0.57535000       0.87840000
   178  C          0.69588900       0.42465000       0.37840000
   179  C          0.80411100       0.92465000       0.87840000
   180  C          0.19588900       0.07535000       0.37840000
   181  C          0.37281200       0.55095000       0.94940000
   182  C          0.62718800       0.44905000       0.44940000
   183  C          0.87281200       0.94905000       0.94940000
   184  C          0.12718800       0.05095000       0.44940000
   185  C          0.38181100       0.51065000       0.84450000
   186  C          0.61818900       0.48935000       0.34450000
   187  C          0.88181100       0.98935000       0.84450000
   188  C          0.11818900       0.01065000       0.34450000
   189  C          0.32501000       0.49215000       0.66550000
   190  C          0.67499000       0.50785000       0.16550000
   191  C          0.82501000       0.00785000       0.66550000
   192  C          0.17499000       0.99215000       0.16550000
   193  C          0.26021100       0.51575000       0.59150000
   194  C          0.73978900       0.48425000       0.09150000
   195  C          0.76021100       0.98425000       0.59150000
   196  C          0.23978900       0.01575000       0.09150000
   197  C          0.24741100       0.55636000       0.69740000
   198  C          0.75258900       0.44364000       0.19740000
   199  C          0.74741100       0.94364000       0.69740000
   200  C          0.25258900       0.05636000       0.19740000
