data_WEDXUB
_symmetry_space_group_name_H-M    'P1'
_symmetry_Int_Tables_number       1
loop_
_symmetry_equiv_pos_site_id
_symmetry_equiv_pos_as_xyz
1 x,y,z
_cell_length_a                   5.61573
_cell_length_b                   5.80133
_cell_length_c                   15.54038
_cell_angle_alpha                85.6162
_cell_angle_beta                 89.1382
_cell_angle_gamma                80.7002
loop_
_atom_site_label
_atom_site_type_symbol
_atom_site_fract_x
_atom_site_fract_y
_atom_site_fract_z
     1  O          0.28965000       0.35895000       0.07252000
     2  O          0.71035000       0.64105000       0.92748000
     3  N          0.27776000       0.74347000       0.03292000
     4  N          0.72224000       0.25653000       0.96708000
     5  H          0.40490000       0.71810000       0.00130000
     6  H          0.59510000       0.28190000      -0.00130000
     7  H          0.20430000       0.88420000       0.03700000
     8  H          0.79570000       0.11580000       0.96300000
     9  N          0.87056000       0.85295000       0.12472000
    10  N          0.12944000       0.14705000       0.87528000
    11  N          0.68865000       0.51105000       0.22987190
    12  N          0.31135000       0.48895000       0.77012810
    13  C          0.19526000       0.56657000       0.07492000
    14  C          0.80474000       0.43343000       0.92508000
    15  C          0.97376000       0.62846000       0.12892000
    16  C          0.02624000       0.37154000       0.87108000
    17  C          0.67337000       0.90217000       0.17273000
    18  C          0.32663000       0.09783000       0.82727000
    19  H          0.59300000       0.05570000       0.17120000
    20  H          0.40700000       0.94430000       0.82880000
    21  C          0.58487000       0.73207000       0.22452000
    22  C          0.41513000       0.26793000       0.77548000
    23  H          0.44650000       0.77470000       0.25700000
    24  H          0.55350000       0.22530000       0.74300000
    25  C          0.88296000       0.46056000       0.18092000
    26  C          0.11704000       0.53944000       0.81908000
    27  H          0.96040000       0.30600000       0.18170000
    28  H          0.03960000       0.69400000       0.81830000
    29  I          0.38069400       0.27845400       0.36228200
    30  I          0.61930600       0.72154600       0.63771800
    31  F          0.23974000       0.32044000       0.56222150
    32  F          0.76026000       0.67956000       0.43777850
    33  F          0.95796000       0.09924000       0.66724130
    34  F          0.04204000       0.90076000       0.33275870
    35  C          0.15025000       0.11605000       0.44482000
    36  C          0.84975000       0.88395000       0.55518000
    37  C          0.12176000       0.16276000       0.52992000
    38  C          0.87824000       0.83724000       0.47008000
    39  C          0.97514000       0.04876000       0.58422000
    40  C          0.02486000       0.95124000       0.41578000
