data_WEFKOJ
_symmetry_space_group_name_H-M    'P1'
_symmetry_Int_Tables_number       1
loop_
_symmetry_equiv_pos_site_id
_symmetry_equiv_pos_as_xyz
1 x,y,z
_cell_length_a                   3.77793
_cell_length_b                   14.04301
_cell_length_c                   14.968911
_cell_angle_alpha                66.8525
_cell_angle_beta                 89.4216
_cell_angle_gamma                86.8375
loop_
_atom_site_label
_atom_site_type_symbol
_atom_site_fract_x
_atom_site_fract_y
_atom_site_fract_z
     1  C          0.44726000       0.60770150       0.80184150
     2  C          0.55274000       0.39229850       0.19815850
     3  C          0.28736000       0.62243160       0.88016150
     4  C          0.71264000       0.37756840       0.11983850
     5  H          0.24940000       0.56510000       0.93700000
     6  H          0.75060000       0.43490000       0.06300000
     7  C          0.18376000       0.72057160       0.87523140
     8  C          0.81624000       0.27942840       0.12476860
     9  C          0.23516000       0.80706160       0.79056140
    10  C          0.76484000       0.19293840       0.20943860
    11  H          0.16700000       0.87320000       0.78670000
    12  H          0.83300000       0.12680000       0.21330000
    13  C          0.39086000       0.79280150       0.71150140
    14  C          0.60914000       0.20719850       0.28849860
    15  C          0.49646000       0.69486150       0.71743150
    16  C          0.50354000       0.30513850       0.28256850
    17  H          0.60210000       0.68700000       0.66420000
    18  H          0.39790000       0.31300000       0.33580000
    19  C          0.02506000       0.73067170       0.96333150
    20  C         -0.02506000       0.26932830       0.03666850
    21  C          0.44366000       0.88433160       0.62015150
    22  C          0.55634000       0.11566840       0.37984850
    23  N          0.54967000       0.50922140       0.80629150
    24  N          0.45033000       0.49077860       0.19370850
    25  H          0.64390000       0.50200000       0.75660000
    26  H          0.35610000       0.49800000       0.24340000
    27  H          0.51850000       0.45560000       0.85870000
    28  H          0.48150000       0.54440000       0.14130000
    29  O         -0.03386000       0.65584120       0.03634110
    30  O          0.03386000       0.34415880       0.96365890
    31  O          0.95655000       0.82667120       0.95434110
    32  O          0.04345000       0.17332880       0.04565890
    33  O          0.31755000       0.97222110       0.61167110
    34  O          0.68245000       0.02777890       0.38832890
    35  O          0.61835000       0.86894120       0.55311110
    36  O          0.38165000       0.13105880       0.44688890
    37  H          0.61712000       0.92720000       0.49620000
    38  H          0.38288000       0.07280000       0.50380000
    39  H          0.85710000       0.83230000       0.00781900
    40  H          0.14290000       0.16770000      -0.00781900
    41  C          0.62846000       0.74678180       0.18605160
    42  C          0.37154000       0.25321820       0.81394840
    43  H          0.69020000       0.68620000       0.17700000
    44  H          0.30980000       0.31380000       0.82300000
    45  C          0.59947000       0.92427180       0.12845170
    46  C          0.40053000       0.07572820       0.87154830
    47  H          0.64600000       0.98740000       0.07890000
    48  H          0.35400000       0.01260000       0.92110000
    49  C          0.44347000       0.92529180       0.21015170
    50  C          0.55653000       0.07470820       0.78984830
    51  H          0.38280000       0.98790000       0.21540000
    52  H          0.61720000       0.01210000       0.78460000
    53  C          0.37396000       0.83065170       0.28703160
    54  C          0.62604000       0.16934830       0.71296840
    55  C          0.21527000       0.82312000       0.37564180
    56  C          0.78473000       0.17688000       0.62435820
    57  H          0.14480000       0.88320000       0.38470000
    58  H          0.85520000       0.11680000       0.61530000
    59  C          0.16517000       0.72922000       0.44719180
    60  C          0.83483000       0.27078000       0.55280820
    61  H          0.06140000       0.72560000       0.50500000
    62  H          0.93860000       0.27440000       0.49500000
    63  C          0.26747000       0.63772000       0.43539170
    64  C          0.73253000       0.36228000       0.56460830
    65  H          0.23300000       0.57390000       0.48550000
    66  H          0.76700000       0.42610000       0.51450000
    67  C          0.41787000       0.64136180       0.35055170
    68  C          0.58213000       0.35863820       0.64944830
    69  H          0.48360000       0.58030000       0.34290000
    70  H          0.51640000       0.41970000       0.65710000
    71  C          0.47256000       0.73780170       0.27515150
    72  C          0.52744000       0.26219830       0.72484850
    73  N          0.69096000       0.83591150       0.11526130
    74  N          0.30904000       0.16408850       0.88473870
