data_WEGREH
_symmetry_space_group_name_H-M    'P1'
_symmetry_Int_Tables_number       1
loop_
_symmetry_equiv_pos_site_id
_symmetry_equiv_pos_as_xyz
1 x,y,z
_cell_length_a                   13.0873
_cell_length_b                   13.1922
_cell_length_c                   14.6203
_cell_angle_alpha                103.232
_cell_angle_beta                 107.213
_cell_angle_gamma                108.812
loop_
_atom_site_label
_atom_site_type_symbol
_atom_site_fract_x
_atom_site_fract_y
_atom_site_fract_z
     1  C          0.18173000       0.22043000       0.33303000
     2  C          0.81827000       0.77957000       0.66697000
     3  H          0.14690000       0.26620000       0.36000000
     4  H          0.85310000       0.73380000       0.64000000
     5  C          0.13473000       0.15873000       0.22813000
     6  C          0.86527000       0.84127000       0.77187000
     7  C          0.18693000       0.09213000       0.18973000
     8  C          0.81307000       0.90787000       0.81027000
     9  H          0.15370000       0.04910000       0.11830000
    10  H          0.84630000       0.95090000       0.88170000
    11  C          0.28583000       0.08683000       0.25283000
    12  C          0.71417000       0.91317000       0.74717000
    13  C          0.33123000       0.14873000       0.35823000
    14  C          0.66877000       0.85127000       0.64177000
    15  H          0.39820000       0.14540000       0.40340000
    16  H          0.60180000       0.85460000       0.59660000
    17  C          0.27943000       0.21473000       0.39753000
    18  C          0.72057000       0.78527000       0.60247000
    19  C          0.02693000       0.16163000       0.15583000
    20  C          0.97307000       0.83837000       0.84417000
    21  C          0.32913000       0.27573000       0.51143000
    22  C          0.67087000       0.72427000       0.48857000
    23  C          0.34524000       0.01644000       0.20853000
    24  C          0.65476000       0.98356000       0.79147000
    25  C          0.44965000       0.01775000       0.29044000
    26  C          0.55035000       0.98225000       0.70956000
    27  H          0.42360000      -0.01300000       0.33860000
    28  H          0.57640000       0.01300000       0.66140000
    29  H          0.51010000       0.09660000       0.32740000
    30  H          0.48990000       0.90340000       0.67260000
    31  H          0.48240000       0.97010000       0.25800000
    32  H          0.51760000       0.02990000       0.74200000
    33  C          0.38695000       0.06405000       0.13404000
    34  C          0.61305000       0.93595000       0.86596000
    35  H          0.32020000       0.06360000       0.08090000
    36  H          0.67980000       0.93640000       0.91910000
    37  H          0.41980000       0.01630000       0.10200000
    38  H          0.58020000       0.98370000       0.89800000
    39  H          0.44760000       0.14280000       0.17130000
    40  H          0.55240000       0.85720000       0.82870000
    41  C          0.25494000       0.89056000       0.15134000
    42  C          0.74506000       0.10944000       0.84866000
    43  H          0.22780000       0.86030000       0.19930000
    44  H          0.77220000       0.13970000       0.80070000
    45  H          0.29180000       0.84520000       0.12250000
    46  H          0.70820000       0.15480000       0.87750000
    47  H          0.18750000       0.88610000       0.09580000
    48  H          0.81250000       0.11390000       0.90420000
    49  C          0.90973000       0.27823000       0.14323000
    50  C          0.09027000       0.72177000       0.85677000
    51  C          0.79863000       0.20923000       0.13333000
    52  C          0.20137000       0.79077000       0.86667000
    53  C          0.70603000       0.24033000       0.09813000
    54  C          0.29397000       0.75967000       0.90187000
    55  H          0.62960000       0.19270000       0.09040000
    56  H          0.37040000       0.80730000       0.90960000
    57  C          0.72253000       0.34003000       0.07383000
    58  C          0.27747000       0.65997000       0.92617000
    59  C          0.83403000       0.40383000       0.08193000
    60  C          0.16597000       0.59617000       0.91807000
    61  H          0.84620000       0.46930000       0.06230000
    62  H          0.15380000       0.53070000       0.93770000
    63  C          0.92933000       0.37694000       0.11733000
    64  C          0.07067000       0.62306000       0.88267000
    65  C          0.62303000       0.38103000       0.04983000
    66  C          0.37697000       0.61897000       0.95017000
    67  C          0.50043000       0.27944000       0.98677000
    68  C          0.49957000       0.72056000       0.01323000
    69  H          0.48850000       0.22510000       0.02360000
    70  H          0.51150000       0.77490000       0.97640000
    71  H          0.43880000       0.30860000       0.98090000
    72  H          0.56120000       0.69140000       0.01910000
    73  C          0.48674000       0.21584000       0.87947000
    74  C          0.51326000       0.78416000       0.12053000
    75  H          0.54480000       0.18220000       0.88520000
    76  H          0.45520000       0.81780000       0.11480000
    77  H          0.40690000       0.15230000       0.84200000
    78  H          0.59310000       0.84770000       0.15800000
    79  C          0.50504000       0.29535000       0.81927000
    80  C          0.49496000       0.70465000       0.18073000
    81  H          0.44110000       0.32180000       0.80610000
    82  H          0.55890000       0.67820000       0.19390000
    83  H          0.50140000       0.25290000       0.75230000
    84  H          0.49860000       0.74710000       0.24770000
    85  C          0.62384000       0.39874000       0.87867000
    86  C          0.37616000       0.60126000       0.12133000
    87  H          0.63070000       0.45310000       0.84170000
    88  H          0.36930000       0.54690000       0.15830000
    89  H          0.68780000       0.37310000       0.88280000
    90  H          0.31220000       0.62690000       0.11720000
    91  C          0.63794000       0.45984000       0.98727000
    92  C          0.36206000       0.54016000       0.01273000
    93  H          0.57890000       0.49220000       0.98250000
    94  H          0.42110000       0.50780000       0.01750000
    95  H          0.71710000       0.52440000       0.02430000
    96  H          0.28290000       0.47560000       0.97570000
    97  C          0.77574000       0.10444000       0.16323000
    98  C          0.22426000       0.89556000       0.83677000
    99  H          0.69240000       0.06830000       0.15120000
   100  H          0.30760000       0.93170000       0.84880000
   101  H          0.82470000       0.12710000       0.23600000
   102  H          0.17530000       0.87290000       0.76400000
   103  H          0.79530000       0.04980000       0.12190000
   104  H          0.20470000       0.95020000       0.87810000
   105  C          0.04984000       0.45414000       0.13064000
   106  C          0.95016000       0.54586000       0.86936000
   107  H          0.10590000       0.42260000       0.15640000
   108  H          0.89410000       0.57740000       0.84360000
   109  H          0.07430000       0.53060000       0.17970000
   110  H          0.92570000       0.46940000       0.82030000
   111  H          0.04770000       0.45950000       0.06440000
   112  H          0.95230000       0.54050000       0.93560000
   113  C          0.33814000       0.43323000       0.64683000
   114  C          0.66186000       0.56677000       0.35317000
   115  C          0.43893000       0.53263000       0.70743000
   116  C          0.56107000       0.46737000       0.29257000
   117  C          0.45213000       0.59053000       0.80573000
   118  C          0.54787000       0.40947000       0.19427000
   119  H          0.52120000       0.65900000       0.84780000
   120  H          0.47880000       0.34100000       0.15220000
   121  C          0.36823000       0.55203000       0.84473000
   122  C          0.63177000       0.44797000       0.15527000
   123  C          0.26903000       0.45053000       0.78133000
   124  C          0.73097000       0.54947000       0.21867000
   125  H          0.21030000       0.42190000       0.80610000
   126  H          0.78970000       0.57810000       0.19390000
   127  C          0.25263000       0.38943000       0.68333000
   128  C          0.74737000       0.61057000       0.31667000
   129  C          0.53304000       0.57774000       0.66983000
   130  C          0.46696000       0.42226000       0.33017000
   131  H          0.59720000       0.64850000       0.72330000
   132  H          0.40280000       0.35150000       0.27670000
   133  H          0.49970000       0.59370000       0.60820000
   134  H          0.50030000       0.40630000       0.39180000
   135  H          0.56370000       0.52030000       0.65340000
   136  H          0.43630000       0.47970000       0.34660000
   137  C          0.14424000       0.27824000       0.61963000
   138  C          0.85576000       0.72176000       0.38037000
   139  H          0.14570000       0.24630000       0.55270000
   140  H          0.85430000       0.75370000       0.44730000
   141  H          0.07350000       0.29260000       0.60960000
   142  H          0.92650000       0.70740000       0.39040000
   143  H          0.14310000       0.22340000       0.65510000
   144  H          0.85690000       0.77660000       0.34490000
   145  N          0.01053000       0.25823000       0.19053000
   146  N         -0.01053000       0.74177000       0.80947000
   147  N          0.31783000       0.37473000       0.54272000
   148  N          0.68217000       0.62527000       0.45728000
   149  O          0.96063000       0.08363000       0.07442000
   150  O          0.03937000       0.91637000       0.92558000
   151  O          0.37473000       0.23643000       0.57142000
   152  O          0.62527000       0.76357000       0.42858000
   153  H          0.07240000       0.31550000       0.24240000
   154  H          0.92760000       0.68450000       0.75760000
   155  H          0.29640000       0.40640000       0.49740000
   156  H          0.70360000       0.59360000       0.50260000
   157  H          0.92840000       0.68550000       0.75840000
   158  H          0.07160000       0.31450000       0.24160000
   159  H          0.70440000       0.59440000       0.50340000
   160  H          0.29560000       0.40560000       0.49660000
   161  C          0.78066000       0.02065000       0.49744000
   162  C          0.21934000       0.97935000       0.50256000
   163  H          0.71330000       0.94550000       0.47800000
   164  H          0.28670000       0.05450000       0.52200000
   165  Cl         0.80322000       0.03319170       0.38757130
   166  Cl         0.19678000       0.96680830       0.61242870
   167  Cl         0.90903140       0.02529150       0.58593130
   168  Cl         0.09096860       0.97470850       0.41406870
   169  Cl         0.74842000       0.13087190       0.55250170
   170  Cl         0.25158000       0.86912810       0.44749830
   171  C          0.10424000       0.17944000       0.91354000
   172  C          0.89576000       0.82056000       0.08646000
   173  H          0.04680000       0.10820000       0.91420000
   174  H          0.95320000       0.89180000       0.08580000
   175  Cl         0.16430150       0.14215140       0.82523110
   176  Cl         0.83569850       0.85784860       0.17476890
   177  Cl         0.03129120       0.26395130       0.87640120
   178  Cl         0.96870880       0.73604870       0.12359880
   179  Cl         0.21786110       0.25851120       0.03702100
   180  Cl         0.78213890       0.74148880       0.96297900
   181  C          0.05106000       0.48755000       0.52664000
   182  C          0.94894000       0.51245000       0.47336000
   183  H          0.05420000       0.48880000       0.59540000
   184  H          0.94580000       0.51120000       0.40460000
   185  H          0.03870000       0.40980000       0.48670000
   186  H          0.96130000       0.59020000       0.51330000
   187  C          0.20235000       0.54984000       0.46404000
   188  C          0.79765000       0.45016000       0.53596000
   189  C          0.31255000       0.63695000       0.47234000
   190  C          0.68745000       0.36305000       0.52766000
   191  H          0.36200000       0.69830000       0.53600000
   192  H          0.63800000       0.30170000       0.46400000
   193  C          0.34475000       0.63266000       0.39525000
   194  C          0.65525000       0.36734000       0.60475000
   195  H          0.29650000       0.57180000       0.33100000
   196  H          0.70350000       0.42820000       0.66900000
   197  H          0.41640000       0.69030000       0.40370000
   198  H          0.58360000       0.30970000       0.59630000
   199  C          0.22307000       0.67666000       0.62855000
   200  C          0.77693000       0.32334000       0.37145000
   201  H          0.17660000       0.67290000       0.67040000
   202  H          0.82340000       0.32710000       0.32960000
   203  H          0.23130000       0.74350000       0.60800000
   204  H          0.76870000       0.25650000       0.39200000
   205  H          0.30120000       0.68340000       0.66850000
   206  H          0.69880000       0.31660000       0.33150000
   207  N          0.16324000       0.57244000       0.53723000
   208  N          0.83676000       0.42756000       0.46277000
   209  O          0.14843000       0.45823000       0.38973000
   210  O          0.85157000       0.54177000       0.61027000
