data_WEJPIL
_symmetry_space_group_name_H-M    'P1'
_symmetry_Int_Tables_number       1
loop_
_symmetry_equiv_pos_site_id
_symmetry_equiv_pos_as_xyz
1 x,y,z
_cell_length_a                   9.109814
_cell_length_b                   13.8342
_cell_length_c                   18.7153
_cell_angle_alpha                90.0
_cell_angle_beta                 92.2233
_cell_angle_gamma                90.0
loop_
_atom_site_label
_atom_site_type_symbol
_atom_site_fract_x
_atom_site_fract_y
_atom_site_fract_z
     1  Cl         0.38129300       0.17697200       0.49047814
     2  Cl         0.61870700       0.67697200       0.00952186
     3  Cl         0.61870700       0.82302800       0.50952186
     4  Cl         0.38129300       0.32302800       0.99047814
     5  O          0.46385100       0.87462400       0.85432500
     6  O          0.53614900       0.37462400       0.64567500
     7  O          0.53614900       0.12537600       0.14567500
     8  O          0.46385100       0.62537600       0.35432500
     9  O          0.03270100       0.48758600       0.75035500
    10  O          0.96729900       0.98758600       0.74964500
    11  O          0.96729900       0.51241400       0.24964500
    12  O          0.03270100       0.01241400       0.25035500
    13  H          0.97970000       0.49000000       0.71260000
    14  H          0.02030000      -0.01000000       0.78740000
    15  H          0.02030000       0.51000000       0.28740000
    16  H          0.97970000       0.01000000       0.21260000
    17  N          0.37012100       0.92880300       0.74844500
    18  N          0.62987900       0.42880300       0.75155500
    19  N          0.62987900       0.07119700       0.25155500
    20  N          0.37012100       0.57119700       0.24844500
    21  N          0.42287100       0.11368700       0.82336500
    22  N          0.57712900       0.61368700       0.67663500
    23  N          0.57712900       0.88631300       0.17663500
    24  N          0.42287100       0.38631300       0.32336500
    25  C          0.38029120       0.10461800       0.56588600
    26  C          0.61970880       0.60461800       0.93411400
    27  C          0.61970880       0.89538200       0.43411400
    28  C          0.38029120       0.39538200       0.06588600
    29  C          0.36530120       0.00495900       0.55931600
    30  C          0.63469880       0.50495900       0.94068400
    31  C          0.63469880      -0.00495900       0.44068400
    32  C          0.36530120       0.49504100       0.05931600
    33  H          0.35500000       0.97590000       0.51340000
    34  H          0.64500000       0.47590000       0.98660000
    35  H          0.64500000       0.02410000       0.48660000
    36  H          0.35500000       0.52410000       0.01340000
    37  C          0.36555120       0.94853200       0.62031600
    38  C          0.63444880       0.44853200       0.87968400
    39  C          0.63444880       0.05146800       0.37968400
    40  C          0.36555120       0.55146800       0.12031600
    41  H          0.35850000       0.88030000       0.61590000
    42  H          0.64150000       0.38030000       0.88410000
    43  H          0.64150000       0.11970000       0.38410000
    44  H          0.35850000       0.61970000       0.11590000
    45  C          0.37610110      -0.00946800       0.68850600
    46  C          0.62389890       0.49053200       0.81149400
    47  C          0.62389890       0.00946800       0.31149400
    48  C          0.37610110       0.50946800       0.18850600
    49  C          0.38277120       0.09207800       0.69441600
    50  C          0.61722880       0.59207800       0.80558400
    51  C          0.61722880       0.90792200       0.30558400
    52  C          0.38277120       0.40792200       0.19441600
    53  C          0.38936120       0.14816800       0.63204600
    54  C          0.61063880       0.64816800       0.86795400
    55  C          0.61063880       0.85183200       0.36795400
    56  C          0.38936120       0.35183200       0.13204600
    57  H          0.40010000       0.21630000       0.63550000
    58  H          0.59990000       0.71630000       0.86450000
    59  H          0.59990000       0.78370000       0.36450000
    60  H          0.40010000       0.28370000       0.13550000
    61  C          0.45492120       0.93932200       0.81013600
    62  C          0.54507880       0.43932200       0.68986400
    63  C          0.54507880       0.06067800       0.18986400
    64  C          0.45492120       0.56067800       0.31013600
    65  C          0.53292120       0.03648800       0.82099600
    66  C          0.46707880       0.53648800       0.67900400
    67  C          0.46707880       0.96351200       0.17900400
    68  C          0.53292120       0.46351200       0.32099600
    69  H          0.59950000       0.04850000       0.78070000
    70  H          0.40050000       0.54850000       0.71930000
    71  H          0.40050000       0.95150000       0.21930000
    72  H          0.59950000       0.45150000       0.28070000
    73  C          0.36319110       0.14193800       0.76337600
    74  C          0.63680890       0.64193800       0.73662400
    75  C          0.63680890       0.85806200       0.23662400
    76  C          0.36319110       0.35806200       0.26337600
    77  C          0.29296140       0.83614200       0.74027700
    78  C          0.70703860       0.33614200       0.75972300
    79  C          0.70703860       0.16385800       0.25972300
    80  C          0.29296140       0.66385800       0.24027700
    81  H          0.35880000       0.78820000       0.72000000
    82  H          0.64120000       0.28820000       0.78000000
    83  H          0.64120000       0.21180000       0.28000000
    84  H          0.35880000       0.71180000       0.22000000
    85  H          0.20620000       0.84440000       0.70820000
    86  H          0.79380000       0.34440000       0.79180000
    87  H          0.79380000       0.15560000       0.29180000
    88  H          0.20620000       0.65560000       0.20820000
    89  H          0.26230000       0.81390000       0.78710000
    90  H          0.73770000       0.31390000       0.71290000
    91  H          0.73770000       0.18610000       0.21290000
    92  H          0.26230000       0.68610000       0.28710000
    93  C          0.26806120       0.22913800       0.76189600
    94  C          0.73193880       0.72913800       0.73810400
    95  C          0.73193880       0.77086200       0.23810400
    96  C          0.26806120       0.27086200       0.26189600
    97  C          0.29997120       0.30584800       0.80862600
    98  C          0.70002880       0.80584800       0.69137400
    99  C          0.70002880       0.69415200       0.19137400
   100  C          0.29997120       0.19415200       0.30862600
   101  H          0.37770000       0.29930000       0.84360000
   102  H          0.62230000       0.79930000       0.65640000
   103  H          0.62230000       0.70070000       0.15640000
   104  H          0.37770000       0.20070000       0.34360000
   105  C          0.22022130       0.39136800       0.80485600
   106  C          0.77977870       0.89136800       0.69514400
   107  C          0.77977870       0.60863200       0.19514400
   108  C          0.22022130       0.10863200       0.30485600
   109  H          0.24280000       0.44250000       0.83730000
   110  H          0.75720000       0.94250000       0.66270000
   111  H          0.75720000       0.55750000       0.16270000
   112  H          0.24280000       0.05750000       0.33730000
   113  C          0.10666130       0.40183800       0.75306600
   114  C          0.89333870       0.90183800       0.74693400
   115  C          0.89333870       0.59816200       0.24693400
   116  C          0.10666130       0.09816200       0.25306600
   117  C          0.07226130       0.32557800       0.70672600
   118  C          0.92773870       0.82557800       0.79327400
   119  C          0.92773870       0.67442200       0.29327400
   120  C          0.07226130       0.17442200       0.20672600
   121  H         -0.00560000       0.33210000       0.67180000
   122  H          0.00560000       0.83210000       0.82820000
   123  H          0.00560000       0.66790000       0.32820000
   124  H         -0.00560000       0.16790000       0.17180000
   125  C          0.15146120       0.24029800       0.71156600
   126  C          0.84853880       0.74029800       0.78843400
   127  C          0.84853880       0.75970200       0.28843400
   128  C          0.15146120       0.25970200       0.21156600
   129  H          0.12630000       0.18840000       0.68020000
   130  H          0.87370000       0.68840000       0.81980000
   131  H          0.87370000       0.81160000       0.31980000
   132  H          0.12630000       0.31160000       0.18020000
   133  C          0.62283140       0.03141800       0.89137600
   134  C          0.37716860       0.53141800       0.60862400
   135  C          0.37716860       0.96858200       0.10862400
   136  C          0.62283140       0.46858200       0.39137600
   137  H          0.55520000       0.01650000       0.93000000
   138  H          0.44480000       0.51650000       0.57000000
   139  H          0.44480000       0.98350000       0.07000000
   140  H          0.55520000       0.48350000       0.43000000
   141  H          0.69240000       0.97670000       0.88850000
   142  H          0.30760000       0.47670000       0.61150000
   143  H          0.30760000       0.02330000       0.11150000
   144  H          0.69240000       0.52330000       0.38850000
   145  C          0.70929120       0.12099800       0.91246600
   146  C          0.29070880       0.62099800       0.58753400
   147  C          0.29070880       0.87900200       0.08753400
   148  C          0.70929120       0.37900200       0.41246600
   149  C          0.82540130       0.15495900       0.87037600
   150  C          0.17459870       0.65495900       0.62962400
   151  C          0.17459870       0.84504100       0.12962400
   152  C          0.82540130       0.34504100       0.37037600
   153  H          0.84190000       0.12500000       0.82570000
   154  H          0.15810000       0.62500000       0.67430000
   155  H          0.15810000       0.87500000       0.17430000
   156  H          0.84190000       0.37500000       0.32570000
   157  C          0.91386130       0.22988900       0.89296600
   158  C          0.08613870       0.72988900       0.60703400
   159  C          0.08613870       0.77011100       0.10703400
   160  C          0.91386130       0.27011100       0.39296600
   161  H         -0.00950000       0.25120000       0.86380000
   162  H          0.00950000       0.75120000       0.63620000
   163  H          0.00950000       0.74880000       0.13620000
   164  H         -0.00950000       0.24880000       0.36380000
   165  C          0.89232120       0.27609800       0.95947600
   166  C          0.10767880       0.77609800       0.54052400
   167  C          0.10767880       0.72390200       0.04052400
   168  C          0.89232120       0.22390200       0.45947600
   169  C         -0.01497860       0.35158900       0.98633700
   170  C          0.01497860       0.85158900       0.51366300
   171  C          0.01497860       0.64841100       0.01366300
   172  C         -0.01497860       0.14841100       0.48633700
   173  H          0.06250000       0.37460000       0.95840000
   174  H          0.93750000       0.87460000       0.54160000
   175  H          0.93750000       0.62540000       0.04160000
   176  H          0.06250000       0.12540000       0.45840000
   177  C          0.96373150       0.39137900       0.05204800
   178  C          0.03626850       0.89137900       0.44795200
   179  C          0.03626850       0.60862100       0.94795200
   180  C          0.96373150       0.10862100       0.55204800
   181  H          0.02710000       0.44130000       0.06950000
   182  H          0.97290000       0.94130000       0.43050000
   183  H          0.97290000       0.55870000       0.93050000
   184  H          0.02710000       0.05870000       0.56950000
   185  C          0.84838150       0.35873900       0.09391700
   186  C          0.15161850       0.85873900       0.40608300
   187  C          0.15161850       0.64126100       0.90608300
   188  C          0.84838150       0.14126100       0.59391700
   189  H          0.83490000       0.38660000       0.13960000
   190  H          0.16510000       0.88660000       0.36040000
   191  H          0.16510000       0.61340000       0.86040000
   192  H          0.83490000       0.11340000       0.63960000
   193  C          0.75541140       0.28703900       0.06923600
   194  C          0.24458860       0.78703900       0.43076400
   195  C          0.24458860       0.71296100       0.93076400
   196  C          0.75541140       0.21296100       0.56923600
   197  H          0.67700000       0.26650000       0.09760000
   198  H          0.32300000       0.76650000       0.40240000
   199  H          0.32300000       0.73350000       0.90240000
   200  H          0.67700000       0.23350000       0.59760000
   201  C          0.77550120       0.24342800       0.00175600
   202  C          0.22449880       0.74342800       0.49824400
   203  C          0.22449880       0.75657200      -0.00175600
   204  C          0.77550120       0.25657200       0.50175600
   205  C          0.68568120       0.16572800       0.97648600
   206  C          0.31431880       0.66572800       0.52351400
   207  C          0.31431880       0.83427200       0.02351400
   208  C          0.68568120       0.33427200       0.47648600
   209  H          0.60740000       0.14420000       0.00460000
   210  H          0.39260000       0.64420000       0.49540000
   211  H          0.39260000       0.85580000      -0.00460000
   212  H          0.60740000       0.35580000       0.50460000
   213  C          0.14529120       0.45423800       0.43498600
   214  C          0.85470880       0.95423800       0.06501400
   215  C          0.85470880       0.54576200       0.56501400
   216  C          0.14529120       0.04576200       0.93498600
   217  C          0.05383120       0.45810800       0.50033600
   218  C          0.94616880       0.95810800      -0.00033600
   219  C          0.94616880       0.54189200       0.49966400
   220  C          0.05383120       0.04189200       0.00033600
   221  H          0.12010000       0.46340000       0.54330000
   222  H          0.87990000       0.96340000       0.95670000
   223  H          0.87990000       0.53660000       0.45670000
   224  H          0.12010000       0.03660000       0.04330000
   225  H         -0.00150000       0.39680000       0.50390000
   226  H          0.00150000       0.89680000      -0.00390000
   227  H          0.00150000       0.60320000       0.49610000
   228  H         -0.00150000       0.10320000       0.00390000
   229  O          0.25625100       0.39294600       0.44298500
   230  O          0.74374900       0.89294600       0.05701500
   231  O          0.74374900       0.60705400       0.55701500
   232  O          0.25625100       0.10705400       0.94298500
   233  O          0.12051100       0.50089700       0.38080400
   234  O          0.87948900       0.00089700       0.11919600
   235  O          0.87948900       0.49910300       0.61919600
   236  O          0.12051100      -0.00089700       0.88080400
   237  H          0.30820000       0.38651400       0.40251100
   238  H          0.69180000       0.88651400       0.09748900
   239  H          0.69180000       0.61348600       0.59748900
   240  H          0.30820000       0.11348600       0.90251100
