data_WERLAK
_symmetry_space_group_name_H-M    'P1'
_symmetry_Int_Tables_number       1
loop_
_symmetry_equiv_pos_site_id
_symmetry_equiv_pos_as_xyz
1 x,y,z
_cell_length_a                   7.05452
_cell_length_b                   10.34524
_cell_length_c                   14.33105
_cell_angle_alpha                97.9132
_cell_angle_beta                 104.2372
_cell_angle_gamma                100.9342
loop_
_atom_site_label
_atom_site_type_symbol
_atom_site_fract_x
_atom_site_fract_y
_atom_site_fract_z
     1  Cl         0.28876110       0.38825700       0.18656500
     2  Cl         0.71123890       0.61174300       0.81343500
     3  Cl         0.00469110       0.72950800       0.40669700
     4  Cl        -0.00469110       0.27049200       0.59330300
     5  O          0.60923000       0.75057160       0.19885120
     6  O          0.39077000       0.24942840       0.80114880
     7  O          0.77683000       0.96293160       0.22192150
     8  O          0.22317000       0.03706840       0.77807850
     9  H          0.83947600       0.92950900       0.18775700
    10  H          0.16052400       0.07049100       0.81224300
    11  N          0.30203000       0.65590190       0.30231130
    12  N          0.69797000       0.34409810       0.69768870
    13  H          0.31388000       0.67751600       0.24783500
    14  H          0.68612000       0.32248400       0.75216500
    15  C          0.14483000       0.55062000       0.30085140
    16  C          0.85517000       0.44938000       0.69914860
    17  C          0.11763000       0.42112000       0.25044160
    18  C          0.88237000       0.57888000       0.74955840
    19  C          0.96256000       0.31623000       0.24892000
    20  C          0.03744000       0.68377000       0.75108000
    21  H          0.94984900       0.23095600       0.21383200
    22  H          0.05015100       0.76904400       0.78616800
    23  C          0.82726000       0.33983000       0.30012000
    24  C          0.17274000       0.66017000       0.69988000
    25  H          0.72471500       0.26957700       0.30168700
    26  H          0.27528500       0.73042300       0.69831300
    27  C          0.84366000       0.46673000       0.34872000
    28  C          0.15634000       0.53327000       0.65128000
    29  H          0.75058400       0.48276300       0.38224800
    30  H          0.24941600       0.51723700       0.61775200
    31  C         -0.00244000       0.57073000       0.34833190
    32  C          0.00244000       0.42927000       0.65166810
    33  C          0.44303000       0.72832000       0.39157150
    34  C          0.55697000       0.27168000       0.60842850
    35  C          0.47064000       0.67473000       0.47612170
    36  C          0.52936000       0.32527000       0.52387830
    37  H          0.39460000       0.59036400       0.47515200
    38  H          0.60540000       0.40963600       0.52484800
    39  C          0.61064000       0.74624000       0.56163190
    40  C          0.38936000       0.25376000       0.43836810
    41  H          0.62791300       0.70988600       0.61815500
    42  H          0.37208700       0.29011400       0.38184500
    43  C          0.72414000       0.87014000       0.56402000
    44  C          0.27586000       0.12986000       0.43598000
    45  H          0.81921600       0.91745100       0.62168900
    46  H          0.18078400       0.08254900       0.37831100
    47  C          0.69674000       0.92433000       0.48047190
    48  C          0.30326000       0.07567000       0.51952810
    49  H          0.77405100       0.00864400       0.48245200
    50  H          0.22594900      -0.00864400       0.51754800
    51  C          0.55593000       0.85572000       0.39340160
    52  C          0.44407000       0.14428000       0.60659840
    53  C          0.52524000       0.91792000       0.30371180
    54  C          0.47476000       0.08208000       0.69628820
    55  H          0.56986900       0.01476100       0.32341100
    56  H          0.43013100      -0.01476100       0.67658900
    57  H          0.38299100       0.89636800       0.26920700
    58  H          0.61700900       0.10363200       0.73079300
    59  C          0.64013000       0.86802000       0.23566160
    60  C          0.35987000       0.13198000       0.76433840
    61  N          0.01273000       0.88663190       0.11763130
    62  N         -0.01273000       0.11336810       0.88236870
    63  N          0.29053000      -0.01454810       0.06212140
    64  N          0.70947000       0.01454810       0.93787860
    65  N          0.88033000       0.65805190       0.09143150
    66  N          0.11967000       0.34194810       0.90856850
    67  H          0.79261000       0.67379300       0.12116400
    68  H          0.20739000       0.32620700       0.87883600
    69  H          0.88045000       0.57676900       0.06848600
    70  H          0.11955000       0.42323100       0.93151400
    71  N          0.21273000       0.62973190      -0.00892140
    72  N          0.78727000       0.37026810       0.00892140
    73  N          0.42083000       0.81548190       0.97989860
    74  N          0.57917000       0.18451810       0.02010140
    75  H          0.51703000       0.86503800       0.96490300
    76  H          0.48297000       0.13496200       0.03509700
    77  C          0.14714000      -0.01088000       0.10619180
    78  C          0.85286000       0.01088000       0.89380820
    79  H          0.13829300       0.07420900       0.13282500
    80  H          0.86170700       0.92579100       0.86717500
    81  C          0.29203000       0.85782000       0.02677150
    82  C          0.70797000       0.14218000       0.97322850
    83  C          0.16283000       0.74292000       0.03327150
    84  C          0.83717000       0.25708000       0.96672850
    85  C          0.01473000       0.75872000       0.08101150
    86  C         -0.01473000       0.24128000       0.91898850
    87  C          0.36784000       0.67932000       0.96134820
    88  C          0.63216000       0.32068000       0.03865180
    89  H          0.43532300       0.62601700       0.93034600
    90  H          0.56467700       0.37398300       0.06965400
