data_WESLAK
_symmetry_space_group_name_H-M    'P1'
_symmetry_Int_Tables_number       1
loop_
_symmetry_equiv_pos_site_id
_symmetry_equiv_pos_as_xyz
1 x,y,z
_cell_length_a                   5.95733
_cell_length_b                   7.88934
_cell_length_c                   15.17367
_cell_angle_alpha                96.2353
_cell_angle_beta                 98.3943
_cell_angle_gamma                92.7052
loop_
_atom_site_label
_atom_site_type_symbol
_atom_site_fract_x
_atom_site_fract_y
_atom_site_fract_z
     1  I          0.83826200       0.22152416       0.37580710
     2  I          0.16173800       0.77847584       0.62419290
     3  N          0.56533000       0.26772000       0.63598120
     4  N          0.43467000       0.73228000       0.36401880
     5  C          0.49853000       0.25403000       0.72751140
     6  C          0.50147000       0.74597000       0.27248860
     7  H          0.41540000       0.14180000       0.72580000
     8  H          0.58460000       0.85820000       0.27420000
     9  H          0.63910000       0.25580000       0.77150000
    10  H          0.36090000       0.74420000       0.22850000
    11  C          0.35284000       0.39183000       0.76113160
    12  C          0.64716000       0.60817000       0.23886840
    13  H          0.20920000       0.39100000       0.71890000
    14  H          0.79080000       0.60900000       0.28110000
    15  H          0.43420000       0.50540000       0.76520000
    16  H          0.56580000       0.49460000       0.23480000
    17  C          0.30114000       0.35783000       0.85360150
    18  C          0.69886000       0.64217000       0.14639850
    19  H          0.23850000       0.23840000       0.85010000
    20  H          0.76150000       0.76160000       0.14990000
    21  H          0.44490000       0.37040000       0.89640000
    22  H          0.55510000       0.62960000       0.10360000
    23  C          0.13374000       0.47693000       0.88938160
    24  C          0.86626000       0.52307000       0.11061840
    25  H         -0.01050000       0.46410000       0.84690000
    26  H          0.01050000       0.53590000       0.15310000
    27  H          0.19590000       0.59650000       0.89290000
    28  H          0.80410000       0.40350000       0.10710000
    29  C          0.08484000       0.44173000       0.98149160
    30  C          0.91516000       0.55827000       0.01850840
    31  H          0.22920000       0.45540000       0.02390000
    32  H          0.77080000       0.54460000       0.97610000
    33  H          0.02480000       0.32160000       0.97790000
    34  H         -0.02480000       0.67840000       0.02210000
    35  C          0.71324000       0.12253000       0.61784160
    36  C          0.28676000       0.87747000       0.38215840
    37  H          0.84470000       0.13020000       0.66550000
    38  H          0.15530000       0.86980000       0.33450000
    39  H          0.76560000       0.12890000       0.55990000
    40  H          0.23440000       0.87110000       0.44010000
    41  H          0.62550000       0.01360000       0.61630000
    42  H          0.37450000      -0.01360000       0.38370000
    43  C          0.69904000       0.43323000       0.63368160
    44  C          0.30096000       0.56677000       0.36631840
    45  H          0.60060000       0.52840000       0.64030000
    46  H          0.39940000       0.47160000       0.35970000
    47  H          0.75660000       0.43150000       0.57630000
    48  H          0.24340000       0.56850000       0.42370000
    49  H          0.82710000       0.44770000       0.68290000
    50  H          0.17290000       0.55230000       0.31710000
    51  C          0.36124000       0.25273000       0.56473150
    52  C          0.63876000       0.74727000       0.43526850
    53  H          0.26870000       0.14810000       0.56800000
    54  H          0.73130000       0.85190000       0.43200000
    55  H          0.41020000       0.24810000       0.50570000
    56  H          0.58980000       0.75190000       0.49430000
    57  H          0.27070000       0.35200000       0.57380000
    58  H          0.72930000       0.64800000       0.42620000
    59  O          0.89683000       0.03792000       0.84359120
    60  O          0.10317000       0.96208000       0.15640880
    61  O          0.79243000       0.77122000       0.78124120
    62  O          0.20757000       0.22878000       0.21875880
    63  H          0.90150000       0.78760000       0.75320000
    64  H          0.09850000       0.21240000       0.24680000
    65  C          0.77444000       0.91013000       0.83748150
    66  C          0.22556000       0.08987000       0.16251850
    67  C          0.58124000       0.88773000       0.88976160
    68  C          0.41876000       0.11227000       0.11023840
    69  H          0.57190000       0.76840000       0.90420000
    70  H          0.42810000       0.23160000       0.09580000
    71  H          0.43710000       0.90660000       0.85160000
    72  H          0.56290000       0.09340000       0.14840000
    73  C          0.60464000       0.00813000       0.97640160
    74  C          0.39536000      -0.00813000       0.02359840
    75  H          0.62650000       0.12720000       0.96290000
    76  H          0.37350000       0.87280000       0.03710000
    77  H          0.74100000      -0.01760000       0.01720000
    78  H          0.25900000       0.01760000       0.98280000
