data_WETKIT
_symmetry_space_group_name_H-M    'P1'
_symmetry_Int_Tables_number       1
loop_
_symmetry_equiv_pos_site_id
_symmetry_equiv_pos_as_xyz
1 x,y,z
_cell_length_a                   8.78484
_cell_length_b                   12.20935
_cell_length_c                   18.46358
_cell_angle_alpha                90.0
_cell_angle_beta                 95.7052
_cell_angle_gamma                90.0
loop_
_atom_site_label
_atom_site_type_symbol
_atom_site_fract_x
_atom_site_fract_y
_atom_site_fract_z
     1  Cl         0.15295500      -0.00110300       0.46391200
     2  Cl         0.84704500      -0.00110300       0.03608800
     3  Cl         0.65295500       0.49889700       0.46391200
     4  Cl         0.34704500       0.49889700       0.03608800
     5  Cl         0.84704500       0.00110300       0.53608800
     6  Cl         0.15295500       0.00110300       0.96391200
     7  Cl         0.34704500       0.50110300       0.53608800
     8  Cl         0.65295500       0.50110300       0.96391200
     9  H          0.03760000       0.00250000       0.49230000
    10  H          0.96240000       0.00250000       0.00770000
    11  H          0.53760000       0.50250000       0.49230000
    12  H          0.46240000       0.50250000       0.00770000
    13  H          0.96240000      -0.00250000       0.50770000
    14  H          0.03760000      -0.00250000       0.99230000
    15  H          0.46240000       0.49750000       0.50770000
    16  H          0.53760000       0.49750000       0.99230000
    17  Cl         0.46846400       0.00395300       0.35146200
    18  Cl         0.53153600       0.00395300       0.14853800
    19  Cl         0.96846400       0.50395300       0.35146200
    20  Cl         0.03153600       0.50395300       0.14853800
    21  Cl         0.53153600      -0.00395300       0.64853800
    22  Cl         0.46846400      -0.00395300       0.85146200
    23  Cl         0.03153600       0.49604700       0.64853800
    24  Cl         0.96846400       0.49604700       0.85146200
    25  P          0.54877400       0.15424300       0.33013200
    26  P          0.45122600       0.15424300       0.16986800
    27  P          0.04877400       0.65424300       0.33013200
    28  P          0.95122600       0.65424300       0.16986800
    29  P          0.45122600       0.84575700       0.66986800
    30  P          0.54877400       0.84575700       0.83013200
    31  P          0.95122600       0.34575700       0.66986800
    32  P          0.04877400       0.34575700       0.83013200
    33  N          0.50000000       0.19205140       0.25000000
    34  N         -0.00000000       0.69205140       0.25000000
    35  N          0.50000000       0.80794860       0.75000000
    36  N         -0.00000000       0.30794860       0.75000000
    37  C          0.46969170       0.24533120       0.39352700
    38  C          0.53030830       0.24533120       0.10647300
    39  C          0.96969170       0.74533120       0.39352700
    40  C          0.03030830       0.74533120       0.10647300
    41  C          0.53030830       0.75466880       0.60647300
    42  C          0.46969170       0.75466880       0.89352700
    43  C          0.03030830       0.25466880       0.60647300
    44  C          0.96969170       0.25466880       0.89352700
    45  H          0.51620600       0.31908100       0.38734700
    46  H          0.48379400       0.31908100       0.11265300
    47  H          0.01620600       0.81908100       0.38734700
    48  H         -0.01620600       0.81908100       0.11265300
    49  H          0.48379400       0.68091900       0.61265300
    50  H          0.51620600       0.68091900       0.88734700
    51  H         -0.01620600       0.18091900       0.61265300
    52  H          0.01620600       0.18091900       0.88734700
    53  C          0.29606180       0.25831140       0.37665800
    54  C          0.70393820       0.25831140       0.12334200
    55  C          0.79606180       0.75831140       0.37665800
    56  C          0.20393820       0.75831140       0.12334200
    57  C          0.70393820       0.74168860       0.62334200
    58  C          0.29606180       0.74168860       0.87665800
    59  C          0.20393820       0.24168860       0.62334200
    60  C          0.79606180       0.24168860       0.87665800
    61  H          0.24577400       0.18828100       0.38457100
    62  H          0.75422600       0.18828100       0.11542900
    63  H          0.74577400       0.68828100       0.38457100
    64  H          0.25422600       0.68828100       0.11542900
    65  H          0.75422600       0.81171900       0.61542900
    66  H          0.24577400       0.81171900       0.88457100
    67  H          0.25422600       0.31171900       0.61542900
    68  H          0.74577400       0.31171900       0.88457100
    69  H          0.27263300       0.28087800       0.32582800
    70  H          0.72736700       0.28087800       0.17417200
    71  H          0.77263300       0.78087800       0.32582800
    72  H          0.22736700       0.78087800       0.17417200
    73  H          0.72736700       0.71912200       0.67417200
    74  H          0.27263300       0.71912200       0.82582800
    75  H          0.22736700       0.21912200       0.67417200
    76  H          0.77263300       0.21912200       0.82582800
    77  H          0.25886500       0.31406100       0.40877500
    78  H          0.74113500       0.31406100       0.09122500
    79  H          0.75886500       0.81406100       0.40877500
    80  H          0.24113500       0.81406100       0.09122500
    81  H          0.74113500       0.68593900       0.59122500
    82  H          0.25886500       0.68593900       0.90877500
    83  H          0.24113500       0.18593900       0.59122500
    84  H          0.75886500       0.18593900       0.90877500
    85  C          0.51164190       0.21103150       0.47268800
    86  C          0.48835810       0.21103150       0.02731200
    87  C          0.01164190       0.71103150       0.47268800
    88  C         -0.01164190       0.71103150       0.02731200
    89  C          0.48835810       0.78896850       0.52731200
    90  C          0.51164190       0.78896850       0.97268800
    91  C         -0.01164190       0.28896850       0.52731200
    92  C          0.01164190       0.28896850       0.97268800
    93  H          0.47746700       0.26743600       0.50518200
    94  H          0.52253300       0.26743600      -0.00518200
    95  H          0.97746700       0.76743600       0.50518200
    96  H          0.02253300       0.76743600      -0.00518200
    97  H          0.52253300       0.73256400       0.49481800
    98  H          0.47746700       0.73256400       0.00518200
    99  H          0.02253300       0.23256400       0.49481800
   100  H          0.97746700       0.23256400       0.00518200
   101  H          0.62280200       0.20229000       0.48168400
   102  H          0.37719800       0.20229000       0.01831600
   103  H          0.12280200       0.70229000       0.48168400
   104  H          0.87719800       0.70229000       0.01831600
   105  H          0.37719800       0.79771000       0.51831600
   106  H          0.62280200       0.79771000       0.98168400
   107  H          0.87719800       0.29771000       0.51831600
   108  H          0.12280200       0.29771000       0.98168400
   109  H          0.46152500       0.14139400       0.48187200
   110  H          0.53847500       0.14139400       0.01812800
   111  H          0.96152500       0.64139400       0.48187200
   112  H          0.03847500       0.64139400       0.01812800
   113  H          0.53847500       0.85860600       0.51812800
   114  H          0.46152500       0.85860600       0.98187200
   115  H          0.03847500       0.35860600       0.51812800
   116  H          0.96152500       0.35860600       0.98187200
   117  C          0.75334160       0.14079130       0.35142800
   118  C          0.24665840       0.14079130       0.14857200
   119  C          0.25334160       0.64079130       0.35142800
   120  C          0.74665840       0.64079130       0.14857200
   121  C          0.24665840       0.85920870       0.64857200
   122  C          0.75334160       0.85920870       0.85142800
   123  C          0.74665840       0.35920870       0.64857200
   124  C          0.25334160       0.35920870       0.85142800
   125  H          0.77285400       0.11391400       0.40266000
   126  H          0.22714600       0.11391400       0.09734000
   127  H          0.27285400       0.61391400       0.40266000
   128  H          0.72714600       0.61391400       0.09734000
   129  H          0.22714600       0.88608600       0.59734000
   130  H          0.77285400       0.88608600       0.90266000
   131  H          0.72714600       0.38608600       0.59734000
   132  H          0.27285400       0.38608600       0.90266000
   133  C          0.82860180       0.25374150       0.34721900
   134  C          0.17139820       0.25374150       0.15278100
   135  C          0.32860180       0.75374150       0.34721900
   136  C          0.67139820       0.75374150       0.15278100
   137  C          0.17139820       0.74625850       0.65278100
   138  C          0.82860180       0.74625850       0.84721900
   139  C          0.67139820       0.24625850       0.65278100
   140  C          0.32860180       0.24625850       0.84721900
   141  H          0.93909300       0.24699800       0.36022900
   142  H          0.06090700       0.24699800       0.13977100
   143  H          0.43909300       0.74699800       0.36022900
   144  H          0.56090700       0.74699800       0.13977100
   145  H          0.06090700       0.75300200       0.63977100
   146  H          0.93909300       0.75300200       0.86022900
   147  H          0.56090700       0.25300200       0.63977100
   148  H          0.43909300       0.25300200       0.86022900
   149  H          0.78533200       0.30394300       0.38116000
   150  H          0.21466800       0.30394300       0.11884000
   151  H          0.28533200       0.80394300       0.38116000
   152  H          0.71466800       0.80394300       0.11884000
   153  H          0.21466800       0.69605700       0.61884000
   154  H          0.78533200       0.69605700       0.88116000
   155  H          0.71466800       0.19605700       0.61884000
   156  H          0.28533200       0.19605700       0.88116000
   157  H          0.80941800       0.28239900       0.29756600
   158  H          0.19058200       0.28239900       0.20243400
   159  H          0.30941800       0.78239900       0.29756600
   160  H          0.69058200       0.78239900       0.20243400
   161  H          0.19058200       0.71760100       0.70243400
   162  H          0.80941800       0.71760100       0.79756600
   163  H          0.69058200       0.21760100       0.70243400
   164  H          0.30941800       0.21760100       0.79756600
   165  C          0.82218180       0.05800150       0.30188900
   166  C          0.17781820       0.05800150       0.19811100
   167  C          0.32218180       0.55800150       0.30188900
   168  C          0.67781820       0.55800150       0.19811100
   169  C          0.17781820       0.94199850       0.69811100
   170  C          0.82218180       0.94199850       0.80188900
   171  C          0.67781820       0.44199850       0.69811100
   172  C          0.32218180       0.44199850       0.80188900
   173  H          0.81436500       0.08642100       0.25200400
   174  H          0.18563500       0.08642100       0.24799600
   175  H          0.31436500       0.58642100       0.25200400
   176  H          0.68563500       0.58642100       0.24799600
   177  H          0.18563500       0.91357900       0.74799600
   178  H          0.81436500       0.91357900       0.75200400
   179  H          0.68563500       0.41357900       0.74799600
   180  H          0.31436500       0.41357900       0.75200400
   181  H          0.76633100      -0.01139000       0.30276100
   182  H          0.23366900      -0.01139000       0.19723900
   183  H          0.26633100       0.48861000       0.30276100
   184  H          0.73366900       0.48861000       0.19723900
   185  H          0.23366900       0.01139000       0.69723900
   186  H          0.76633100       0.01139000       0.80276100
   187  H          0.73366900       0.51139000       0.69723900
   188  H          0.26633100       0.51139000       0.80276100
   189  H          0.93001800       0.04586700       0.31908100
   190  H          0.06998200       0.04586700       0.18091900
   191  H          0.43001800       0.54586700       0.31908100
   192  H          0.56998200       0.54586700       0.18091900
   193  H          0.06998200       0.95413300       0.68091900
   194  H          0.93001800       0.95413300       0.81908100
   195  H          0.56998200       0.45413300       0.68091900
   196  H          0.43001800       0.45413300       0.81908100
