data_WEVXAX
_symmetry_space_group_name_H-M    'P1'
_symmetry_Int_Tables_number       1
loop_
_symmetry_equiv_pos_site_id
_symmetry_equiv_pos_as_xyz
1 x,y,z
_cell_length_a                   4.55154
_cell_length_b                   10.59739
_cell_length_c                   34.7053
_cell_angle_alpha                90.0
_cell_angle_beta                 90.0
_cell_angle_gamma                90.0
loop_
_atom_site_label
_atom_site_type_symbol
_atom_site_fract_x
_atom_site_fract_y
_atom_site_fract_z
     1  P          0.48750130       0.81316600       0.12884616
     2  P          0.01249870       0.18683400       0.62884616
     3  P         -0.01249870       0.68683400       0.87115384
     4  P          0.51249870       0.31316600       0.37115384
     5  O          0.24744000       0.75052150       0.15063500
     6  O          0.25256000       0.24947850       0.65063500
     7  O          0.74744000       0.74947850       0.84936500
     8  O          0.75256000       0.25052150       0.34936500
     9  O          0.73644000       0.85192000       0.15612700
    10  O          0.76356000       0.14808000       0.65612700
    11  O          0.23644000       0.64808000       0.84387300
    12  O          0.26356000       0.35192000       0.34387300
    13  H          0.89470000       0.80730000       0.15471000
    14  H          0.60530000       0.19270000       0.65471000
    15  H          0.39470000       0.69270000       0.84529000
    16  H          0.10530000       0.30730000       0.34529000
    17  O          0.37215000       0.93537170       0.11026500
    18  O          0.12785000       0.06462830       0.61026500
    19  O          0.87215000       0.56462830       0.88973500
    20  O          0.62785000       0.43537170       0.38973500
    21  H          0.41470000       0.95130000       0.08648000
    22  H          0.08530000       0.04870000       0.58648000
    23  H          0.91470000       0.54870000       0.91352000
    24  H          0.58530000       0.45130000       0.41352000
    25  O          0.60774000       0.72266160       0.09777500
    26  O          0.89226000       0.27733840       0.59777500
    27  O          0.10774000       0.77733840       0.90222500
    28  O          0.39226000       0.22266160       0.40222500
    29  H          0.71660000       0.75730000       0.08089000
    30  H          0.78340000       0.24270000       0.58089000
    31  H          0.21660000       0.74270000       0.91911000
    32  H          0.28340000       0.25730000       0.41911000
    33  P          0.77257130       0.92323500       0.01808817
    34  P          0.72742870       0.07676500       0.51808817
    35  P          0.27257130       0.57676500       0.98191183
    36  P          0.22742870       0.42323500       0.48191183
    37  O          0.52324000      -0.00994850       0.03851500
    38  O         -0.02324000       0.00994850       0.53851500
    39  O          0.02324000       0.50994850       0.96148500
    40  O          0.47676000       0.49005150       0.46148500
    41  O          0.01414000       0.02416160       0.01074500
    42  O          0.48586000       0.97583840       0.51074500
    43  O          0.51414000       0.47583840       0.98925500
    44  O         -0.01414000       0.52416160       0.48925500
    45  H          0.17260000       0.00730000       0.02159000
    46  H          0.32740000      -0.00730000       0.52159000
    47  H          0.67260000       0.49270000       0.97841000
    48  H          0.82740000       0.50730000       0.47841000
    49  O          0.88914000       0.81371160       0.04054500
    50  O          0.61086000       0.18628840       0.54054500
    51  O          0.38914000       0.68628840       0.95945500
    52  O          0.11086000       0.31371160       0.45945500
    53  O          0.68315000       0.88634180       0.97688500
    54  O          0.81685000       0.11365820       0.47688500
    55  O          0.18315000       0.61365820       0.02311500
    56  O          0.31685000       0.38634180       0.52311500
    57  H          0.56570000       0.82630000       0.97259000
    58  H          0.93430000       0.17370000       0.47259000
    59  H          0.06570000       0.67370000       0.02741000
    60  H          0.43430000       0.32630000       0.52741000
    61  N          0.63124000       0.26932000       0.04604700
    62  N          0.86876000       0.73068000       0.54604700
    63  N          0.13124000       0.23068000       0.95395300
    64  N          0.36876000       0.76932000       0.45395300
    65  H          0.58130000       0.18730000       0.04069000
    66  H          0.91870000       0.81270000       0.54069000
    67  H          0.08130000       0.31270000       0.95931000
    68  H          0.41870000       0.68730000       0.45931000
    69  H          0.53730000       0.33730000       0.03549000
    70  H          0.96270000       0.66270000       0.53549000
    71  H          0.03730000       0.16270000       0.96451000
    72  H          0.46270000       0.83730000       0.46451000
    73  N          0.35635000       0.39153190       0.16585600
    74  N          0.14365000       0.60846810       0.66585600
    75  N          0.85635000       0.10846810       0.83414400
    76  N          0.64365000       0.89153190       0.33414400
    77  N          0.40955000       0.50276190       0.17883600
    78  N          0.09045000       0.49723810       0.67883600
    79  N          0.90955000      -0.00276190       0.82116400
    80  N          0.59045000       0.00276190       0.32116400
    81  H          0.31870000       0.57230000       0.16829000
    82  H          0.18130000       0.42770000       0.66829000
    83  H          0.81870000       0.92770000       0.83171000
    84  H          0.68130000       0.07230000       0.33171000
    85  C          0.80344000       0.30162000       0.07502700
    86  C          0.69656000       0.69838000       0.57502700
    87  C          0.30344000       0.19838000       0.92497300
    88  C          0.19656000       0.80162000       0.42497300
    89  C          0.94834000       0.20852000       0.09755700
    90  C          0.55166000       0.79148000       0.59755700
    91  C          0.44834000       0.29148000       0.90244300
    92  C          0.05166000       0.70852000       0.40244300
    93  H          0.91820000       0.12340000       0.09240000
    94  H          0.58180000       0.87660000       0.59240000
    95  H          0.41820000       0.37660000       0.90760000
    96  H          0.08180000       0.62340000       0.40760000
    97  C          0.13067000       0.24392000       0.12650700
    98  C          0.36933000       0.75608000       0.62650700
    99  C          0.63067000       0.25608000       0.87349300
   100  C          0.86933000       0.74392000       0.37349300
   101  H          0.22760000       0.18240000       0.14070000
   102  H          0.27240000       0.81760000       0.64070000
   103  H          0.72760000       0.31760000       0.85930000
   104  H          0.77240000       0.68240000       0.35930000
   105  C          0.17606000       0.37292000       0.13548700
   106  C          0.32394000       0.62708000       0.63548700
   107  C          0.67606000       0.12708000       0.86451300
   108  C          0.82394000       0.87292000       0.36451300
   109  C          0.02906000       0.46612000       0.11322700
   110  C          0.47094000       0.53388000       0.61322700
   111  C          0.52906000       0.03388000       0.88677300
   112  C         -0.02906000       0.96612000       0.38677300
   113  H          0.05700000       0.55120000       0.11860000
   114  H          0.44300000       0.44880000       0.61860000
   115  H          0.55700000       0.94880000       0.88140000
   116  H          0.94300000       0.05120000       0.38140000
   117  C          0.84994000       0.43142000       0.08443700
   118  C          0.65006000       0.56858000       0.58443700
   119  C          0.34994000       0.06858000       0.91556300
   120  C          0.15006000       0.93142000       0.41556300
   121  H          0.75380000       0.49330000       0.07020000
   122  H          0.74620000       0.50670000       0.57020000
   123  H          0.25380000       0.00670000       0.92980000
   124  H          0.24620000      -0.00670000       0.42980000
   125  C          0.58536000       0.51642000       0.21240600
   126  C          0.91464000       0.48358000       0.71240600
   127  C          0.08536000       0.98358000       0.78759400
   128  C          0.41464000       0.01642000       0.28759400
   129  C          0.75256000       0.41682000       0.22619700
   130  C          0.74744000       0.58318000       0.72619700
   131  C          0.25256000       0.08318000       0.77380300
   132  C          0.24744000       0.91682000       0.27380300
   133  H          0.76010000       0.34090000       0.21280000
   134  H          0.73990000       0.65910000       0.71280000
   135  H          0.26010000       0.15910000       0.78720000
   136  H          0.23990000       0.84090000       0.28720000
   137  C          0.90707000       0.43193000       0.25994800
   138  C          0.59293000       0.56807000       0.75994800
   139  C          0.40707000       0.06807000       0.74005200
   140  C          0.09293000       0.93193000       0.24005200
   141  H          0.01720000       0.36510000       0.26960000
   142  H          0.48280000       0.63490000       0.76960000
   143  H          0.51720000       0.13490000       0.73040000
   144  H         -0.01720000       0.86510000       0.23040000
   145  C          0.90047000       0.54453000       0.27953700
   146  C          0.59953000       0.45547000       0.77953700
   147  C          0.40047000       0.95547000       0.72046300
   148  C          0.09953000       0.04453000       0.22046300
   149  H          0.00580000       0.55400000       0.30230000
   150  H          0.49420000       0.44600000       0.80230000
   151  H          0.50580000       0.94600000       0.69770000
   152  H         -0.00580000       0.05400000       0.19770000
   153  C          0.73687000       0.64303000       0.26526800
   154  C          0.76313000       0.35697000       0.76526800
   155  C          0.23687000       0.85697000       0.73473200
   156  C          0.26313000       0.14303000       0.23473200
   157  H          0.73100000       0.71900000       0.27860000
   158  H          0.76900000       0.28100000       0.77860000
   159  H          0.23100000       0.78100000       0.72140000
   160  H          0.26900000       0.21900000       0.22140000
   161  C          0.58106000       0.63062000       0.23131700
   162  C          0.91894000       0.36938000       0.73131700
   163  C          0.08106000       0.86938000       0.76868300
   164  C          0.41894000       0.13062000       0.26868300
   165  H          0.47510000       0.69830000       0.22140000
   166  H          0.02490000       0.30170000       0.72140000
   167  H         -0.02490000       0.80170000       0.77860000
   168  H          0.52490000       0.19830000       0.27860000
