data_WEXKEP
_symmetry_space_group_name_H-M    'P1'
_symmetry_Int_Tables_number       1
loop_
_symmetry_equiv_pos_site_id
_symmetry_equiv_pos_as_xyz
1 x,y,z
_cell_length_a                   7.6352
_cell_length_b                   9.6273
_cell_length_c                   17.6736
_cell_angle_alpha                76.573
_cell_angle_beta                 96.983
_cell_angle_gamma                85.613
loop_
_atom_site_label
_atom_site_type_symbol
_atom_site_fract_x
_atom_site_fract_y
_atom_site_fract_z
     1  Br         0.11132000       0.73491000       0.48331000
     2  Br         0.88868000       0.26509000       0.51669000
     3  Br         0.17561000       0.97159000       0.86751000
     4  Br         0.82439000       0.02841000       0.13249000
     5  N          0.91581000       0.59597000       0.81004000
     6  N          0.08419000       0.40403000       0.18996000
     7  C          0.95788900       0.35408000       0.90395000
     8  C          0.04211100       0.64592000       0.09605000
     9  C          0.01871100       0.21369000       0.91435000
    10  C         -0.01871100       0.78631000       0.08565000
    11  C          0.08051000       0.16938000       0.85076000
    12  C          0.91949000       0.83062000       0.14924000
    13  C          0.09061000       0.25948000       0.77925000
    14  C          0.90939000       0.74052000       0.22075000
    15  C          0.07131100       0.55429000       0.63285000
    16  C          0.92868900       0.44571000       0.36715000
    17  C          0.04771200       0.69601000       0.58655000
    18  C          0.95228800       0.30399000       0.41345000
    19  C         -0.01941300       0.80979000       0.61646000
    20  C          0.01941300       0.19021000       0.38354000
    21  C          0.93208800       0.78819000       0.68866000
    22  C          0.06791200       0.21181000       0.31134000
    23  C          0.95058900       0.64649000       0.73455000
    24  C          0.04941100       0.35351000       0.26545000
    25  C          0.02331000       0.53048000       0.70624000
    26  C          0.97669000       0.46952000       0.29376000
    27  C          0.03011000       0.40438000       0.77034000
    28  C          0.96989000       0.59562000       0.22966000
    29  C          0.96529000       0.44918000       0.83335000
    30  C          0.03471000       0.55082000       0.16665000
    31  C          0.85248700       0.68471000       0.85866000
    32  C          0.14751300       0.31529000       0.14134000
    33  H          0.91220000       0.37670000       0.94540000
    34  H          0.08780000       0.62330000       0.05460000
    35  H          0.01670000       0.15260000       0.97130000
    36  H         -0.01670000       0.84740000       0.02870000
    37  H          0.01179000       0.23870000       0.73840000
    38  H         -0.01179000       0.76130000       0.26160000
    39  H          0.12010000       0.47880000       0.60040000
    40  H          0.87990000       0.52120000       0.39960000
    41  H          0.97020000       0.89760000       0.58940000
    42  H          0.02980000       0.10240000       0.41060000
    43  H          0.87990000       0.87790000       0.71450000
    44  H          0.12010000       0.12210000       0.28550000
    45  H          0.92089000       0.72680000       0.86950000
    46  H          0.07911000       0.27320000       0.13050000
    47  H          0.83383000       0.64213000       0.91870000
    48  H          0.16617000       0.35787000       0.08130000
    49  H          0.75284000       0.71713000       0.83770000
    50  H          0.24716000       0.28287000       0.16230000
    51  O          0.30198000       0.97266000       0.19933000
    52  O          0.69802000       0.02734000       0.80067000
    53  O          0.27818000       0.82656000       0.31493000
    54  O          0.72182000       0.17344000       0.68507000
    55  O          0.34839000       0.05896000       0.07504000
    56  O          0.65161000       0.94104000       0.92496000
    57  O          0.66637000       0.35926000       0.13554000
    58  O          0.33363000       0.64074000       0.86446000
    59  O          0.69578000       0.50767000       0.01964000
    60  O          0.30422000       0.49233000       0.98036000
    61  O          0.59511000       0.26806000       0.25484000
    62  O          0.40489000       0.73194000       0.74516000
    63  C          0.41041000       0.73358000       0.21584000
    64  C          0.58959000       0.26642000       0.78416000
    65  C          0.43601000       0.80768700       0.14075000
    66  C          0.56399000       0.19231300       0.85925000
    67  C          0.50781100       0.74298000       0.08994000
    68  C          0.49218900       0.25702000       0.91006000
    69  C          0.55891000       0.59558000       0.11985000
    70  C          0.44109000       0.40442000       0.88015000
    71  C          0.53141000       0.52387000       0.19215000
    72  C          0.46859000       0.47613000       0.80785000
    73  C          0.45741100       0.58828000       0.24345000
    74  C          0.54258900       0.41172000       0.75655000
    75  C          0.32041100       0.84011000       0.25295000
    76  C          0.67958900       0.15989000       0.74705000
    77  C          0.36141100       0.96049000       0.12995000
    78  C          0.63858900       0.03951000       0.87005000
    79  C          0.64791100       0.49289000       0.08055000
    80  C          0.35208900       0.50711000       0.91945000
    81  C          0.59691100       0.36939000       0.20375000
    82  C          0.40308900       0.63061000       0.79625000
    83  H          0.51780000       0.78570000       0.04240000
    84  H          0.48220000       0.21430000       0.95760000
    85  H          0.43490000       0.55470000       0.29240000
    86  H          0.56510000       0.44530000       0.70760000
    87  O          0.35119000       0.30937000       0.54044000
    88  O          0.64881000       0.69063000       0.45956000
    89  O          0.40701000       0.40247000       0.41714000
    90  O          0.59299000       0.59753000       0.58286000
    91  O          0.32149000       0.15888000       0.65394000
    92  O          0.67851000       0.84112000       0.34606000
    93  C          0.46291100       0.14629000       0.47635000
    94  C          0.53708900       0.85371000       0.52365000
    95  C          0.43311100       0.07109000       0.54875000
    96  C          0.56688900       0.92891000       0.45125000
    97  C          0.52951200       0.07691000       0.42385000
    98  C          0.47048800       0.92309000       0.57615000
    99  C          0.40701200       0.30181000       0.46845000
   100  C          0.59298800       0.69819000       0.53155000
   101  C          0.36081100       0.17661000       0.59075000
   102  C          0.63918900       0.82339000       0.40925000
   103  H          0.54180000       0.11960000       0.38130000
   104  H          0.45820000       0.88040000       0.61870000
   105  H          0.45980000       0.88040000       0.61930000
   106  H          0.54020000       0.11960000       0.38070000
