data_WEXWAY
_symmetry_space_group_name_H-M    'P1'
_symmetry_Int_Tables_number       1
loop_
_symmetry_equiv_pos_site_id
_symmetry_equiv_pos_as_xyz
1 x,y,z
_cell_length_a                   4.73309
_cell_length_b                   9.065018
_cell_length_c                   22.5984
_cell_angle_alpha                94.533
_cell_angle_beta                 93.223
_cell_angle_gamma                92.323
loop_
_atom_site_label
_atom_site_type_symbol
_atom_site_fract_x
_atom_site_fract_y
_atom_site_fract_z
     1  I          0.87167110       0.47479600       0.35327300
     2  I          0.12832890       0.52520400       0.64672700
     3  I          0.03406110       0.52104600       0.14325300
     4  I          0.96593890       0.47895400       0.85674700
     5  I          0.17025130       0.93020300       0.24721300
     6  I          0.82974870       0.06979700       0.75278700
     7  F          0.50939000       0.59645000       0.24762000
     8  F          0.49061000       0.40355000       0.75238000
     9  F          0.96459000       0.17785000       0.16592000
    10  F          0.03541000       0.82215000       0.83408000
    11  F          0.61371000       0.13965000       0.32862000
    12  F          0.38629000       0.86035000       0.67138000
    13  C          0.57811600       0.37109000       0.28834000
    14  C          0.42188400       0.62891000       0.71166000
    15  C          0.44241700       0.44959000       0.24644000
    16  C          0.55758300       0.55041000       0.75356000
    17  C          0.23881600       0.38889000       0.20434000
    18  C          0.76118400       0.61111000       0.79566000
    19  C          0.16981700       0.24139000       0.20614000
    20  C          0.83018300       0.75861000       0.79386000
    21  C          0.28941800       0.15389000       0.24734000
    22  C          0.71058200       0.84611000       0.75266000
    23  C          0.49181800       0.22241000       0.28694000
    24  C          0.50818200       0.77759000       0.71306000
    25  N          0.74731400       0.34387000       0.56743000
    26  N          0.25268600       0.65613000       0.43257000
    27  C          0.65991700       0.34361000       0.51054000
    28  C          0.34008300       0.65639000       0.48946000
    29  H          0.75390000       0.41010000       0.48680000
    30  H          0.24610000       0.58990000       0.51320000
    31  C          0.62111800       0.24211000       0.59904000
    32  C          0.37888200       0.75789000       0.40096000
    33  H          0.68490000       0.23670000       0.63940000
    34  H          0.31510000       0.76330000       0.36060000
    35  C          0.43831700       0.25169000       0.48354000
    36  C          0.56168300       0.74831000       0.51646000
    37  H          0.37970000       0.25950000       0.44300000
    38  H          0.62030000       0.74050000       0.55700000
    39  C          0.40131700       0.14489000       0.57504000
    40  C          0.59868300       0.85511000       0.42496000
    41  H          0.31760000       0.07570000       0.59900000
    42  H          0.68240000       0.92430000       0.40100000
    43  C          0.30381600       0.14889000       0.51574000
    44  C          0.69618400       0.85111000       0.48426000
    45  C          0.07141800       0.05121000       0.48714000
    46  C          0.92858200       0.94879000       0.51286000
    47  H          0.02614000       0.07680000       0.45230000
    48  H         -0.02614000       0.92320000       0.54770000
    49  H         -0.02614000       0.92320000       0.54830000
    50  H          0.02614000       0.07680000       0.45170000
    51  N          0.71721300       0.70158000       0.07073000
    52  N          0.28278700       0.29842000       0.92927000
    53  C          0.63411600       0.67481000       0.01374000
    54  C          0.36588400       0.32519000       0.98626000
    55  H          0.72490000       0.60000000       0.99090000
    56  H          0.27510000       0.40000000       0.00910000
    57  C          0.59151700       0.80951000       0.10104000
    58  C          0.40848300       0.19049000       0.89896000
    59  H          0.64900000       0.83110000       0.14190000
    60  H          0.35100000       0.16890000       0.85810000
    61  C          0.42341600       0.74929000       0.98526000
    62  C          0.57658400       0.25071000       0.01474000
    63  H          0.37020000       0.72330000       0.94450000
    64  H          0.62980000       0.27670000       0.05550000
    65  C          0.38451600       0.89149000       0.07694000
    66  C          0.61548400       0.10851000       0.92306000
    67  H          0.30430000       0.96800000       0.10080000
    68  H          0.69570000       0.03200000       0.89920000
    69  C          0.28951600       0.86219000       0.01654000
    70  C          0.71048400       0.13781000       0.98346000
    71  C          0.07141700       0.94501000       0.98806000
    72  C          0.92858300       0.05499000       0.01194000
    73  H          0.02013000       0.90070000       0.94970000
    74  H         -0.02013000       0.09930000       0.05030000
    75  H         -0.02013000       0.10070000       0.05030000
    76  H          0.02013000       0.89930000       0.94970000
