data_WEXWEC
_symmetry_space_group_name_H-M    'P1'
_symmetry_Int_Tables_number       1
loop_
_symmetry_equiv_pos_site_id
_symmetry_equiv_pos_as_xyz
1 x,y,z
_cell_length_a                   4.08308
_cell_length_b                   9.056018
_cell_length_c                   24.0465
_cell_angle_alpha                90.0
_cell_angle_beta                 92.173
_cell_angle_gamma                90.0
loop_
_atom_site_label
_atom_site_type_symbol
_atom_site_fract_x
_atom_site_fract_y
_atom_site_fract_z
     1  I          0.23677190       0.58203110       0.25326400
     2  I          0.73677190       0.41796890       0.75326400
     3  I          0.61767830       0.53551100       0.47504400
     4  I          0.11767830       0.46448900       0.97504400
     5  I          0.73038000       0.13720110       0.36518400
     6  I          0.23038000       0.86279890       0.86518400
     7  F          0.57480000       0.88571100       0.45214000
     8  F          0.07480000       0.11428900       0.95214000
     9  F          0.07020000       0.92671000       0.27884000
    10  F          0.57020000       0.07329000       0.77884000
    11  F         -0.01120000       0.46489000       0.36624000
    12  F          0.48880000       0.53511000       0.86624000
    13  C          0.03640000       0.69161700       0.32106000
    14  C          0.53640000       0.30838300       0.82106000
    15  C         -0.02140000       0.84341800       0.32286000
    16  C          0.47860000       0.15658200       0.82286000
    17  C          0.82060000       0.90911600       0.36698000
    18  C          0.32060000       0.09088400       0.86698000
    19  C          0.72870000       0.82471700       0.40966000
    20  C          0.22870000       0.17528300       0.90966000
    21  C          0.77670000       0.67101700       0.41165000
    22  C          0.27670000       0.32898300       0.91165000
    23  C          0.94460000       0.60741600       0.36666000
    24  C          0.44460000       0.39258400       0.86666000
    25  N          0.44940000       0.36011600       0.17377000
    26  N          0.94940000       0.63988400       0.67377000
    27  N          0.89830000       0.68328500       0.04975000
    28  N          0.39830000       0.31671500       0.54975000
    29  C          0.55740000       0.35601800       0.12166000
    30  C          0.05740000       0.64398200       0.62166000
    31  H          0.57910000       0.44600000       0.10180000
    32  H          0.07910000       0.55400000       0.60180000
    33  C          0.43450000       0.23820000       0.20138000
    34  C          0.93450000       0.76180000       0.70138000
    35  H          0.37040000       0.24280000       0.23890000
    36  H          0.87040000       0.75720000       0.73890000
    37  C          0.63840000       0.22441600       0.09576000
    38  C          0.13840000       0.77558400       0.59576000
    39  H          0.69970000       0.22410000       0.05800000
    40  H          0.19970000       0.77590000       0.55800000
    41  C          0.50740000       0.09671900       0.17947000
    42  C          0.00740000       0.90328100       0.67947000
    43  H          0.47570000       0.00880000       0.20010000
    44  H         -0.02430000      -0.00880000       0.70010000
    45  C          0.62840000       0.09371700       0.12567000
    46  C          0.12840000       0.90628300       0.62567000
    47  C          0.71440000       0.95218200       0.10116000
    48  C          0.21440000       0.04781800       0.60116000
    49  C          0.64840000       0.92418300       0.04316000
    50  C          0.14840000       0.07581700       0.54316000
    51  H          0.54100000      -0.00370000       0.02010000
    52  H          0.04100000       0.00370000       0.52010000
    53  C          0.87740000       0.83808200       0.12916000
    54  C          0.37740000       0.16191800       0.62916000
    55  H          0.93260000       0.85080000       0.16750000
    56  H          0.43260000       0.14920000       0.66750000
    57  C          0.74640000       0.78698100       0.02056000
    58  C          0.24640000       0.21301900       0.52056000
    59  H          0.69870000       0.76910000       0.98210000
    60  H          0.19870000       0.23090000       0.48210000
    61  C          0.96140000       0.70908300       0.10457000
    62  C          0.46140000       0.29091700       0.60457000
    63  H          0.06730000       0.63470000       0.12650000
    64  H          0.56730000       0.36530000       0.62650000
