data_WEZJIY
_symmetry_space_group_name_H-M    'P1'
_symmetry_Int_Tables_number       1
loop_
_symmetry_equiv_pos_site_id
_symmetry_equiv_pos_as_xyz
1 x,y,z
_cell_length_a                   10.077901
_cell_length_b                   31.13073
_cell_length_c                   9.336001
_cell_angle_alpha                90.0
_cell_angle_beta                 90.98601
_cell_angle_gamma                90.0
loop_
_atom_site_label
_atom_site_type_symbol
_atom_site_fract_x
_atom_site_fract_y
_atom_site_fract_z
     1  I          0.76302300       0.50879200       0.21577300
     2  I          0.23697700       0.00879200       0.28422700
     3  I          0.23697700       0.49120800       0.78422700
     4  I          0.76302300       0.99120800       0.71577300
     5  I          0.14818300       0.64897200       0.04465400
     6  I          0.85181700       0.14897200       0.45534600
     7  I          0.85181700       0.35102800       0.95534600
     8  I          0.14818300       0.85102800       0.54465400
     9  Cl        -0.01158890       0.58501400       0.27061120
    10  Cl         0.01158890       0.08501400       0.22938880
    11  Cl         0.01158890       0.41498600       0.72938880
    12  Cl        -0.01158890       0.91498600       0.77061120
    13  Cl         0.73773120       0.49167400       0.85919870
    14  Cl         0.26226880       0.99167400       0.64080130
    15  Cl         0.26226880       0.50832600       0.14080130
    16  Cl         0.73773120       0.00832600       0.35919870
    17  Cl         0.88684120       0.54236400       0.62566880
    18  Cl         0.11315880       0.04236400       0.87433120
    19  Cl         0.11315880       0.45763600       0.37433120
    20  Cl         0.88684120       0.95763600       0.12566880
    21  Cl         0.07924130       0.61572400       0.71096870
    22  Cl         0.92075870       0.11572400       0.78903130
    23  Cl         0.92075870       0.38427600       0.28903130
    24  Cl         0.07924130       0.88427600       0.21096870
    25  C          0.86804000       0.54128150       0.05555000
    26  C          0.13196000       0.04128150       0.44445000
    27  C          0.13196000       0.45871850       0.94445000
    28  C          0.86804000       0.95871850       0.55555000
    29  C          0.95834000       0.57339150       0.09185000
    30  C          0.04166000       0.07339150       0.40815000
    31  C          0.04166000       0.42660850       0.90815000
    32  C          0.95834000       0.92660850       0.59185000
    33  C          0.02555000       0.59739150      -0.01165000
    34  C          0.97445000       0.09739150       0.51165000
    35  C          0.97445000       0.40260850       0.01165000
    36  C          0.02555000       0.90260850       0.48835000
    37  C          0.00105000       0.58722160       0.84455000
    38  C         -0.00105000       0.08722160       0.65545000
    39  C         -0.00105000       0.41277840       0.15545000
    40  C          0.00105000       0.91277840       0.34455000
    41  C          0.91365000       0.55427160       0.80405000
    42  C          0.08635000       0.05427160       0.69595000
    43  C          0.08635000       0.44572840       0.19595000
    44  C          0.91365000       0.94572840       0.30405000
    45  C          0.84705000       0.53186160       0.90995000
    46  C          0.15295000       0.03186160       0.59005000
    47  C          0.15295000       0.46813840       0.09005000
    48  C          0.84705000       0.96813840       0.40995000
    49  N          0.62915000       0.61957160       0.79975000
    50  N          0.37085000       0.11957160       0.70025000
    51  N          0.37085000       0.38042840       0.20025000
    52  N          0.62915000       0.88042840       0.29975000
    53  N          0.07864000       0.73533150       0.37495000
    54  N          0.92136000       0.23533150       0.12505000
    55  N          0.92136000       0.26466850       0.62505000
    56  N          0.07864000       0.76466850       0.87495000
    57  N          0.33624000       0.78121140       0.58915000
    58  N          0.66376000       0.28121140       0.91085000
    59  N          0.66376000       0.21878860       0.41085000
    60  N          0.33624000       0.71878860       0.08915000
    61  N          0.36064000       0.53628130       0.57024000
    62  N          0.63936000       0.03628130       0.92976000
    63  N          0.63936000       0.46371870       0.42976000
    64  N          0.36064000       0.96371870       0.07024000
    65  C          0.72005000       0.64543170       0.85884000
    66  C          0.27995000       0.14543170       0.64116000
    67  C          0.27995000       0.35456830       0.14116000
    68  C          0.72005000       0.85456830       0.35884000
    69  H          0.78011200       0.65956500       0.79739400
    70  H          0.21988800       0.15956500       0.70260600
    71  H          0.21988800       0.34043500       0.20260600
    72  H          0.78011200       0.84043500       0.29739400
    73  C          0.73195000       0.65292160       0.00565000
    74  C          0.26805000       0.15292160       0.49435000
    75  C          0.26805000       0.34707840      -0.00565000
    76  C          0.73195000       0.84707840       0.50565000
    77  H          0.79824400       0.67185500       0.04208800
    78  H          0.20175600       0.17185500       0.45791200
    79  H          0.20175600       0.32814500       0.95791200
    80  H          0.79824400       0.82814500       0.54208800
    81  C          0.64575000       0.63240150       0.09805000
    82  C          0.35425000       0.13240150       0.40195000
    83  C          0.35425000       0.36759850       0.90195000
    84  C          0.64575000       0.86759850       0.59805000
    85  C          0.55355000       0.60444160       0.03856000
    86  C          0.44645000       0.10444160       0.46144000
    87  C          0.44645000       0.39555840       0.96144000
    88  C          0.55355000       0.89555840       0.53856000
    89  H          0.49462600       0.58896400       0.09784300
    90  H          0.50537400       0.08896400       0.40215700
    91  H          0.50537400       0.41103600       0.90215700
    92  H          0.49462600       0.91103600       0.59784300
    93  C          0.54806000       0.59925180       0.88984000
    94  C          0.45194000       0.09925180       0.61016000
    95  C          0.45194000       0.40074820       0.11016000
    96  C          0.54806000       0.90074820       0.38984000
    97  H          0.48324900       0.58026700       0.85041500
    98  H          0.51675100       0.08026700       0.64958500
    99  H          0.51675100       0.41973300       0.14958500
   100  H          0.48324900       0.91973300       0.35041500
   101  C          0.65174000       0.64127140       0.25655000
   102  C          0.34826000       0.14127140       0.24345000
   103  C          0.34826000       0.35872860       0.74345000
   104  C          0.65174000       0.85872860       0.75655000
   105  H          0.71476100       0.62099900       0.30536900
   106  H          0.28523900       0.12099900       0.19463100
   107  H          0.28523900       0.37900100       0.69463100
   108  H          0.71476100       0.87900100       0.80536900
   109  C          0.67975000       0.68819150       0.30585000
   110  C          0.32025000       0.18819150       0.19415000
   111  C          0.32025000       0.31180850       0.69415000
   112  C          0.67975000       0.81180850       0.80585000
   113  H          0.63372000       0.70819500       0.23743500
   114  H          0.36628000       0.20819500       0.26256500
   115  H          0.36628000       0.29180500       0.76256500
   116  H          0.63372000       0.79180500       0.73743500
   117  C          0.58684000       0.67970150       0.43305000
   118  C          0.41316000       0.17970150       0.06695000
   119  C          0.41316000       0.32029850       0.56695000
   120  C          0.58684000       0.82029850       0.93305000
   121  H          0.63829600       0.66632900       0.51389600
   122  H          0.36170400       0.16632900      -0.01389600
   123  H          0.36170400       0.33367100       0.48610400
   124  H          0.63829600       0.83367100       0.01389600
   125  C          0.51894000       0.64356150       0.33935000
   126  C          0.48106000       0.14356150       0.16065000
   127  C          0.48106000       0.35643850       0.66065000
   128  C          0.51894000       0.85643850       0.83935000
   129  H          0.44807000       0.65643500       0.27645300
   130  H          0.55193000       0.15643500       0.22354700
   131  H          0.55193000       0.34356500       0.72354700
   132  H          0.44807000       0.84356500       0.77645300
   133  C          0.81875000       0.70430150       0.33205000
   134  C          0.18125000       0.20430150       0.16795000
   135  C          0.18125000       0.29569850       0.66795000
   136  C          0.81875000       0.79569850       0.83205000
   137  C          0.86155000       0.74167170       0.26576000
   138  C          0.13845000       0.24167170       0.23424000
   139  C          0.13845000       0.25832830       0.73424000
   140  C          0.86155000       0.75832830       0.76576000
   141  H          0.80358000       0.75724500       0.20339700
   142  H          0.19642000       0.25724500       0.29660300
   143  H          0.19642000       0.24275500       0.79660300
   144  H          0.80358000       0.74275500       0.70339700
   145  C         -0.00984000       0.75586180       0.29176000
   146  C          0.00984000       0.25586180       0.20824000
   147  C          0.00984000       0.24413820       0.70824000
   148  C         -0.00984000       0.74413820       0.79176000
   149  H          0.01695000       0.78186800       0.24748100
   150  H          0.98305000       0.28186800       0.25251900
   151  H          0.98305000       0.21813200       0.75251900
   152  H          0.01695000       0.71813200       0.74748100
   153  C          0.03625000       0.69957170       0.43775000
   154  C          0.96375000       0.19957170       0.06225000
   155  C          0.96375000       0.30042830       0.56225000
   156  C          0.03625000       0.80042830       0.93775000
   157  H          0.09713900       0.68433900       0.49752300
   158  H          0.90286100       0.18433900       0.00247700
   159  H          0.90286100       0.31566100       0.50247700
   160  H          0.09713900       0.81566100      -0.00247700
   161  C          0.90905000       0.68310160       0.42165000
   162  C          0.09095000       0.18310160       0.07835000
   163  C          0.09095000       0.31689840       0.57835000
   164  C          0.90905000       0.81689840       0.92165000
   165  H          0.88383400       0.65776200       0.47099800
   166  H          0.11616600       0.15776200       0.02900200
   167  H          0.11616600       0.34223800       0.52900200
   168  H          0.88383400       0.84223800       0.97099800
   169  C          0.50124000       0.71508150       0.48895000
   170  C          0.49876000       0.21508150       0.01105000
   171  C          0.49876000       0.28491850       0.51105000
   172  C          0.50124000       0.78491850      -0.01105000
   173  C          0.51115000       0.75683160       0.43756000
   174  C          0.48885000       0.25683160       0.06244000
   175  C          0.48885000       0.24316840       0.56244000
   176  C          0.51115000       0.74316840       0.93756000
   177  H          0.57478400       0.76373700       0.36731300
   178  H          0.42521600       0.26373700       0.13268700
   179  H          0.42521600       0.23626300       0.63268700
   180  H          0.57478400       0.73626300       0.86731300
   181  C          0.42775000       0.78824160       0.48926000
   182  C          0.57225000       0.28824160       0.01074000
   183  C          0.57225000       0.21175840       0.51074000
   184  C          0.42775000       0.71175840      -0.01074000
   185  H          0.43561400       0.81647600       0.45174100
   186  H          0.56438600       0.31647600       0.04825900
   187  H          0.56438600       0.18352400       0.54825900
   188  H          0.43561400       0.68352400       0.95174100
   189  C          0.32795000       0.74149180       0.63976000
   190  C          0.67205000       0.24149180       0.86024000
   191  C          0.67205000       0.25850820       0.36024000
   192  C          0.32795000       0.75850820       0.13976000
   193  H          0.26445400       0.73578500       0.71131500
   194  H          0.73554600       0.23578500       0.78868500
   195  H          0.73554600       0.26421500       0.28868500
   196  H          0.26445400       0.76421500       0.21131500
   197  C          0.40735000       0.70759160       0.59355000
   198  C          0.59265000       0.20759160       0.90645000
   199  C          0.59265000       0.29240840       0.40645000
   200  C          0.40735000       0.79240840       0.09355000
   201  H          0.39727100       0.67969700       0.63319200
   202  H          0.60272900       0.17969700       0.86680800
   203  H          0.60272900       0.32030300       0.36680800
   204  H          0.39727100       0.82030300       0.13319200
   205  C          0.46565000       0.60485150       0.41435000
   206  C          0.53435000       0.10485150       0.08565000
   207  C          0.53435000       0.39514850       0.58565000
   208  C          0.46565000       0.89514850       0.91435000
   209  C          0.54675000       0.57869150       0.50055000
   210  C          0.45325000       0.07869150      -0.00055000
   211  C          0.45325000       0.42130850       0.49945000
   212  C          0.54675000       0.92130850       0.00055000
   213  H          0.63963000       0.58358300       0.50663700
   214  H          0.36037000       0.08358300      -0.00663700
   215  H          0.36037000       0.41641700       0.49336300
   216  H          0.63963000       0.91641700       0.00663700
   217  C          0.48965000       0.54561150       0.57685000
   218  C          0.51035000       0.04561150       0.92315000
   219  C          0.51035000       0.45438850       0.42315000
   220  C          0.48965000       0.95438850       0.07685000
   221  H          0.54538400       0.52861900       0.63720200
   222  H          0.45461600       0.02861900       0.86279800
   223  H          0.45461600       0.47138100       0.36279800
   224  H          0.54538400       0.97138100       0.13720200
   225  C          0.28395000       0.56031160       0.48565000
   226  C          0.71605000       0.06031160       0.01435000
   227  C          0.71605000       0.43968840       0.51435000
   228  C          0.28395000       0.93968840      -0.01435000
   229  H          0.19201900       0.55369400       0.47894100
   230  H          0.80798100       0.05369400       0.02105900
   231  H          0.80798100       0.44630600       0.52105900
   232  H          0.19201900       0.94630600       0.97894100
   233  C          0.33095000       0.59454160       0.40645000
   234  C          0.66905000       0.09454160       0.09355000
   235  C          0.66905000       0.40545840       0.59355000
   236  C          0.33095000       0.90545840       0.90645000
   237  H          0.27197600       0.61082400       0.34723900
   238  H          0.72802400       0.11082400       0.15276100
   239  H          0.72802400       0.38917600       0.65276100
   240  H          0.27197600       0.88917600       0.84723900
