data_WIBYIT
_symmetry_space_group_name_H-M    'P1'
_symmetry_Int_Tables_number       1
loop_
_symmetry_equiv_pos_site_id
_symmetry_equiv_pos_as_xyz
1 x,y,z
_cell_length_a                   12.08455
_cell_length_b                   13.93895
_cell_length_c                   12.80435
_cell_angle_alpha                90.0
_cell_angle_beta                 94.6742
_cell_angle_gamma                90.0
loop_
_atom_site_label
_atom_site_type_symbol
_atom_site_fract_x
_atom_site_fract_y
_atom_site_fract_z
     1  Br         0.42388200       0.73725200       0.22258200
     2  Br         0.07611800       0.23725200       0.27741800
     3  Br         0.57611800       0.26274800       0.77741800
     4  Br         0.92388200       0.76274800       0.72258200
     5  Br         0.36002200       0.17820200       0.22885200
     6  Br         0.13997800       0.67820200       0.27114800
     7  Br         0.63997800       0.82179800       0.77114800
     8  Br         0.86002200       0.32179800       0.72885200
     9  N          0.50928170       0.11335150       0.39411160
    10  N         -0.00928170       0.61335150       0.10588840
    11  N          0.49071830       0.88664850       0.60588840
    12  N          0.00928170       0.38664850       0.89411160
    13  N          0.55382180       0.62638160       0.09128170
    14  N          0.94617820       0.12638160       0.40871830
    15  N          0.44617820       0.37361840       0.90871830
    16  N          0.05382180       0.87361840       0.59128170
    17  N          0.51182170       0.54832150       0.22929160
    18  N         -0.01182170       0.04832150       0.27070840
    19  N          0.48817830       0.45167850       0.77070840
    20  N          0.01182170       0.95167850       0.72929160
    21  N          0.51869180       0.02849150       0.25323170
    22  N          0.98130820       0.52849150       0.24676830
    23  N          0.48130820       0.97150850       0.74676830
    24  N          0.01869180       0.47150850       0.75323170
    25  C          0.50192000       0.63187180       0.17912000
    26  C         -0.00192000       0.13187180       0.32088000
    27  C          0.49808000       0.36812820       0.82088000
    28  C          0.00192000       0.86812820       0.67912000
    29  C          0.52802000       0.44518180       0.38521190
    30  C          0.97198000       0.94518180       0.11478810
    31  C          0.47198000       0.55481820       0.61478810
    32  C          0.02802000       0.05481820       0.88521190
    33  C          0.53332000       0.28280180       0.45115190
    34  C          0.96668000       0.78280180       0.04884810
    35  C          0.46668000       0.71719820       0.54884810
    36  C          0.03332000       0.21719820       0.95115190
    37  C          0.47602000       0.35818180       0.40065190
    38  C          0.02398000       0.85818180       0.09934810
    39  C          0.52398000       0.64181820       0.59934810
    40  C          0.97602000       0.14181820       0.90065190
    41  H          0.40021500       0.35006700       0.37633600
    42  H          0.09978500       0.85006700       0.12366400
    43  H          0.59978500       0.64993300       0.62366400
    44  H          0.90021500       0.14993300       0.87633600
    45  C          0.46852000       0.10211180       0.29552000
    46  C          0.03148000       0.60211180       0.20448000
    47  C          0.53148000       0.89788820       0.70448000
    48  C          0.96852000       0.39788820       0.79552000
    49  C          0.64392000       0.29481190       0.48682000
    50  C          0.85608000       0.79481190       0.01318000
    51  C          0.35608000       0.70518810       0.51318000
    52  C          0.14392000       0.20518810       0.98682000
    53  H          0.68382600       0.24346900       0.52100100
    54  H          0.81617400       0.74346900       0.97899900
    55  H          0.31617400       0.75653100       0.47899900
    56  H          0.18382600       0.25653100       0.02100100
    57  C          0.58932000       0.04330190       0.41622000
    58  C          0.91068000       0.54330190       0.08378000
    59  C          0.41068000       0.95669810       0.58378000
    60  C          0.08932000       0.45669810       0.91622000
    61  H          0.63213100       0.03402100       0.48099000
    62  H          0.86786900       0.53402100       0.01901000
    63  H          0.36786900       0.96597900       0.51901000
    64  H          0.13213100       0.46597900       0.98099000
    65  C          0.57252000       0.48722000       0.17102000
    66  C          0.92748000       0.98722000       0.32898000
    67  C          0.42748000       0.51278000       0.82898000
    68  C          0.07252000       0.01278000       0.67102000
    69  H          0.59203100       0.42268300       0.18799900
    70  H          0.90796900       0.92268300       0.31200100
    71  H          0.40796900       0.57731700       0.81200100
    72  H          0.09203100       0.07731700       0.68799900
    73  C          0.59892000       0.53612000       0.08532000
    74  C          0.90108000       0.03612000       0.41468000
    75  C          0.40108000       0.46388000       0.91468000
    76  C          0.09892000       0.96388000       0.58532000
    77  H          0.64077000       0.51251800       0.03111300
    78  H          0.85923000       0.01251800       0.46888700
    79  H          0.35923000       0.48748200       0.96888700
    80  H          0.14077000       0.98748200       0.53111300
    81  C          0.46522000       0.52591180       0.32992000
    82  C          0.03478000       0.02591180       0.17008000
    83  C          0.53478000       0.47408820       0.67008000
    84  C          0.96522000       0.97408820       0.82992000
    85  H          0.38609600       0.50773500       0.31649900
    86  H          0.11390400       0.00773500       0.18350100
    87  H          0.61390400       0.49226500       0.68350100
    88  H          0.88609600      -0.00773500       0.81649900
    89  H          0.46921100       0.58359600       0.37515400
    90  H          0.03078900       0.08359600       0.12484600
    91  H          0.53078900       0.41640400       0.62484600
    92  H          0.96921100       0.91640400       0.87515400
    93  C          0.63882000       0.45705190       0.42182000
    94  C          0.86118000       0.95705190       0.07818000
    95  C          0.36118000       0.54294810       0.57818000
    96  C          0.13882000       0.04294810       0.92182000
    97  H          0.67489500       0.51652100       0.41192200
    98  H          0.82510500       0.01652100       0.08807800
    99  H          0.32510500       0.48347900       0.58807800
   100  H          0.17489500       0.98347900       0.91192200
   101  C          0.47662000       0.18786180       0.46802000
   102  C          0.02338000       0.68786180       0.03198000
   103  C          0.52338000       0.81213820       0.53198000
   104  C          0.97662000       0.31213820       0.96802000
   105  H          0.49607800       0.16590000       0.54069200
   106  H          0.00392200       0.66590000       0.95930800
   107  H          0.50392200       0.83410000       0.45930800
   108  H         -0.00392200       0.33410000       0.04069200
   109  H          0.39515400       0.19691200       0.45891400
   110  H          0.10484600       0.69691200       0.04108600
   111  H          0.60484600       0.80308800       0.54108600
   112  H          0.89515400       0.30308800       0.95891400
   113  C          0.69642000       0.38242000       0.47242000
   114  C          0.80358000       0.88242000       0.02758000
   115  C          0.30358000       0.61758000       0.52758000
   116  C          0.19642000       0.11758000       0.97242000
   117  H          0.77196400       0.39079100       0.49741700
   118  H          0.72803600       0.89079100       0.00258300
   119  H          0.22803600       0.60920900       0.50258300
   120  H          0.27196400       0.10920900      -0.00258300
   121  C          0.59462000      -0.00902000       0.32842000
   122  C          0.90538000       0.49098000       0.17158000
   123  C          0.40538000       0.00902000       0.67158000
   124  C          0.09462000       0.50902000       0.82842000
   125  H          0.64213800       0.93774800       0.31988700
   126  H          0.85786200       0.43774800       0.18011300
   127  H          0.35786200       0.06225200       0.68011300
   128  H          0.14213800       0.56225200       0.81988700
   129  C          0.56562000       0.70422000       0.01652000
   130  C          0.93438000       0.20422000       0.48348000
   131  C          0.43438000       0.29578000       0.98348000
   132  C          0.06562000       0.79578000       0.51652000
   133  H          0.49217600       0.73042000      -0.00577000
   134  H          0.00782400       0.23042000       0.50577000
   135  H          0.50782400       0.26958000       0.00577000
   136  H         -0.00782400       0.76958000       0.49423000
   137  H          0.60008300       0.67941400       0.95524900
   138  H          0.89991700       0.17941400       0.54475100
   139  H          0.39991700       0.32058600       0.04475100
   140  H          0.10008300       0.82058600       0.45524900
   141  H          0.61234000       0.75484800       0.04970500
   142  H          0.88766000       0.25484800       0.45029500
   143  H          0.38766000       0.24515200       0.95029500
   144  H          0.11234000       0.74515200       0.54970500
   145  C          0.49603000      -0.00722000       0.14602000
   146  C          0.00397000       0.49278000       0.35398000
   147  C          0.50397000       0.00722000       0.85398000
   148  C         -0.00397000       0.50722000       0.64602000
   149  H          0.41928000       0.96954000       0.13635400
   150  H          0.08072000       0.46954000       0.36364600
   151  H          0.58072000       0.03046000       0.86364600
   152  H          0.91928000       0.53046000       0.63635400
   153  H          0.54702300       0.94013500       0.13362500
   154  H          0.95297700       0.44013500       0.36637500
   155  H          0.45297700       0.05986500       0.86637500
   156  H          0.04702300       0.55986500       0.63362500
   157  H          0.50639600       0.04482500       0.09626300
   158  H         -0.00639600       0.54482500       0.40373700
   159  H          0.49360400       0.95517500       0.90373700
   160  H          0.00639600       0.45517500       0.59626300
   161  Br         0.27363200       0.90891200       0.32323200
   162  Br         0.22636800       0.40891200       0.17676800
   163  Br         0.72636800       0.09108800       0.67676800
   164  Br         0.77363200       0.59108800       0.82323200
   165  P          0.23011500       0.27283500       0.65712500
   166  P          0.26988500       0.77283500       0.84287500
   167  P          0.76988500       0.72716500       0.34287500
   168  P          0.73011500       0.22716500       0.15712500
   169  F          0.34675130       0.29954120       0.61407140
   170  F          0.15324870       0.79954120       0.88592860
   171  F          0.65324870       0.70045880       0.38592860
   172  F          0.84675130       0.20045880       0.11407140
   173  F          0.21893140       0.18236120       0.57928140
   174  F          0.28106860       0.68236120       0.92071860
   175  F          0.78106860       0.81763880       0.42071860
   176  F          0.71893140       0.31763880       0.07928140
   177  F          0.24153140       0.36202120       0.73475140
   178  F          0.25846860       0.86202120       0.76524860
   179  F          0.75846860       0.63797880       0.26524860
   180  F          0.74153140       0.13797880       0.23475140
   181  F          0.29242150       0.20640130       0.74556130
   182  F          0.20757850       0.70640130       0.75443870
   183  F          0.70757850       0.79359870       0.25443870
   184  F          0.79242150       0.29359870       0.24556130
   185  F          0.11340140       0.24593130       0.69966150
   186  F          0.38659860       0.74593130       0.80033850
   187  F          0.88659860       0.75406870       0.30033850
   188  F          0.61340140       0.25406870       0.19966150
   189  F          0.16771160       0.33882130       0.56841150
   190  F          0.33228840       0.83882130       0.93158850
   191  F          0.83228840       0.66117870       0.43158850
   192  F          0.66771160       0.16117870       0.06841150
