data_WIGRAI
_symmetry_space_group_name_H-M    'P1'
_symmetry_Int_Tables_number       1
loop_
_symmetry_equiv_pos_site_id
_symmetry_equiv_pos_as_xyz
1 x,y,z
_cell_length_a                   8.24787
_cell_length_b                   8.72438
_cell_length_c                   8.99788
_cell_angle_alpha                88.6737
_cell_angle_beta                 64.6269
_cell_angle_gamma                66.8788
loop_
_atom_site_label
_atom_site_type_symbol
_atom_site_fract_x
_atom_site_fract_y
_atom_site_fract_z
     1  I          0.22876300       0.27365300       0.35933300
     2  I          0.77123700       0.72634700       0.64066700
     3  F          0.86947000       0.24273000       0.33493000
     4  F          0.13053000       0.75727000       0.66507000
     5  F          0.30863000       0.96027000       0.55513000
     6  F          0.69137000       0.03973000       0.44487000
     7  C          0.93695000       0.12284000       0.41784000
     8  C          0.06305000       0.87716000       0.58216000
     9  C          0.15545000      -0.01775000       0.52674000
    10  C          0.84455000       0.01775000       0.47326000
    11  C          0.09515000       0.10854000       0.44164000
    12  C          0.90485000       0.89146000       0.55836000
    13  C          0.32295000       0.75564000       0.10944000
    14  C          0.67705000       0.24436000       0.89056000
    15  C          0.27495000       0.62855000       0.18025000
    16  C          0.72505000       0.37145000       0.81975000
    17  H          0.17030000       0.61620000       0.17520000
    18  H          0.82970000       0.38380000       0.82480000
    19  N          0.36755000       0.52274000       0.25474000
    20  N          0.63245000       0.47726000       0.74526000
    21  C          0.47725000       0.77164000       0.11764000
    22  C          0.52275000       0.22836000       0.88236000
    23  H          0.51400000       0.85650000       0.07180000
    24  H          0.48600000       0.14350000       0.92820000
    25  C          0.51696000       0.54115000       0.26025000
    26  C          0.48304000       0.45885000       0.73975000
    27  H          0.58350000       0.46730000       0.31230000
    28  H          0.41650000       0.53270000       0.68770000
    29  C          0.57915000       0.66255000       0.19355000
    30  C          0.42085000       0.33745000       0.80645000
    31  C          0.21116000       0.86965000       0.02555000
    32  C          0.78884000       0.13035000       0.97445000
    33  H          0.18470000      -0.01550000       0.05740000
    34  H          0.81530000       0.01550000       0.94260000
    35  H          0.08820000       0.86090000       0.05910000
    36  H          0.91180000       0.13910000       0.94090000
    37  H          0.28880000       0.83650000       0.90650000
    38  H          0.71120000       0.16350000       0.09350000
    39  C          0.75177000       0.67637000       0.20076000
    40  C          0.24823000       0.32363000       0.79924000
    41  H          0.81200000       0.58400000       0.24740000
    42  H          0.18800000       0.41600000       0.75260000
    43  H          0.70620000       0.78160000       0.26930000
    44  H          0.29380000       0.21840000       0.73070000
    45  H          0.84720000       0.67230000       0.08990000
    46  H          0.15280000       0.32770000       0.91010000
