data_WIGRUC
_symmetry_space_group_name_H-M    'P1'
_symmetry_Int_Tables_number       1
loop_
_symmetry_equiv_pos_site_id
_symmetry_equiv_pos_as_xyz
1 x,y,z
_cell_length_a                   11.1025
_cell_length_b                   9.8395
_cell_length_c                   17.1185
_cell_angle_alpha                90.0
_cell_angle_beta                 107.7045
_cell_angle_gamma                90.0
loop_
_atom_site_label
_atom_site_type_symbol
_atom_site_fract_x
_atom_site_fract_y
_atom_site_fract_z
     1  I          0.64043200       0.60398200       0.46933200
     2  I          0.85956800       0.10398200       0.03066800
     3  I          0.35956800       0.39601800       0.53066800
     4  I          0.14043200       0.89601800       0.96933200
     5  I          0.63916300       0.22570300       0.19001200
     6  I          0.86083700       0.72570300       0.30998800
     7  I          0.36083700       0.77429700       0.80998800
     8  I          0.13916300       0.27429700       0.69001200
     9  F          0.90182000       0.44572000       0.53742130
    10  F          0.59818000       0.94572000       0.96257870
    11  F          0.09818000       0.55428000       0.46257870
    12  F          0.40182000       0.05428000       0.03742130
    13  F          0.01582000       0.25743000       0.47258160
    14  F          0.48418000       0.75743000       0.02741840
    15  F         -0.01582000       0.74257000       0.52741840
    16  F          0.51582000       0.24257000       0.97258160
    17  F          0.55470190       0.44442000       0.29807130
    18  F          0.94529810       0.94442000       0.20192870
    19  F          0.44529810       0.55558000       0.70192870
    20  F          0.05470190       0.05558000       0.79807130
    21  F          0.90432000       0.16123000       0.32118160
    22  F          0.59568000       0.66123000       0.17881840
    23  F          0.09568000       0.83877000       0.67881840
    24  F          0.40432000       0.33877000       0.82118160
    25  C          0.90124000       0.30424000       0.42843000
    26  C          0.59876000       0.80424000       0.07157000
    27  C          0.09876000       0.69576000       0.57157000
    28  C          0.40124000       0.19576000       0.92843000
    29  C          0.84434000       0.25614000       0.35213000
    30  C          0.65566000       0.75614000       0.14787000
    31  C          0.15566000       0.74386000       0.64787000
    32  C          0.34434000       0.24386000       0.85213000
    33  C          0.84294000       0.40024000       0.46172000
    34  C          0.65706000       0.90024000       0.03828000
    35  C          0.15706000       0.59976000       0.53828000
    36  C          0.34294000       0.09976000       0.96172000
    37  C          0.72653000       0.30234000       0.30692000
    38  C          0.77347000       0.80234000       0.19308000
    39  C          0.27347000       0.69766000       0.69308000
    40  C          0.22653000       0.19766000       0.80692000
    41  C          0.66993000       0.39913000       0.34152000
    42  C          0.83007000       0.89913000       0.15848000
    43  C          0.33007000       0.60087000       0.65848000
    44  C          0.16993000       0.10087000       0.84152000
    45  C          0.72533000       0.45183000       0.41852000
    46  C          0.77467000       0.95183000       0.08148000
    47  C          0.27467000       0.54817000       0.58148000
    48  C          0.22533000       0.04817000       0.91852000
    49  N          0.47323000       0.18693000       0.44734180
    50  N          0.02677000       0.68693000       0.05265820
    51  N          0.52677000       0.81307000       0.55265820
    52  N          0.97323000       0.31307000       0.94734180
    53  C          0.45944000       0.04304000       0.32912000
    54  C          0.04056000       0.54304000       0.17088000
    55  C          0.54056000       0.95696000       0.67088000
    56  C          0.95944000       0.45696000       0.82912000
    57  C          0.77744000       0.00554000       0.48343000
    58  C          0.72256000       0.50554000       0.01657000
    59  C          0.22256000      -0.00554000       0.51657000
    60  C          0.27744000       0.49446000       0.98343000
    61  H          0.81720000       0.94330000       0.45850000
    62  H          0.68280000       0.44330000       0.04150000
    63  H          0.18280000       0.05670000       0.54150000
    64  H          0.31720000       0.55670000       0.95850000
    65  C          0.59204000       0.14384000       0.48112000
    66  C          0.90796000       0.64384000       0.01888000
    67  C          0.40796000       0.85616000       0.51888000
    68  C          0.09204000       0.35616000       0.98112000
    69  C          0.58214000      -0.00074000       0.36602000
    70  C          0.91786000       0.49926000       0.13398000
    71  C          0.41786000       0.00074000       0.63398000
    72  C          0.08214000       0.50074000       0.86602000
    73  H          0.61820000       0.93650000       0.33920000
    74  H          0.88180000       0.43650000       0.16080000
    75  H          0.38180000       0.06350000       0.66080000
    76  H          0.11820000       0.56350000       0.83920000
    77  C          0.66264000       0.19254000       0.55992000
    78  C          0.83736000       0.69254000       0.94008000
    79  C          0.33736000       0.80746000       0.44008000
    80  C          0.16264000       0.30746000       0.05992000
    81  H          0.62590000       0.25510000       0.58650000
    82  H          0.87410000       0.75510000       0.91350000
    83  H          0.37410000       0.74490000       0.41350000
    84  H          0.12590000       0.24490000       0.08650000
    85  C          0.65184000       0.04784000       0.44212000
    86  C          0.84816000       0.54784000       0.05788000
    87  C          0.34816000       0.95216000       0.55788000
    88  C          0.15184000       0.45216000       0.94212000
    89  C          0.21024000       0.13074000       0.26373000
    90  C          0.28976000       0.63074000       0.23627000
    91  C          0.78976000       0.86926000       0.73627000
    92  C          0.71024000       0.36926000       0.76373000
    93  H          0.12650000       0.15820000       0.24180000
    94  H          0.37350000       0.65820000       0.25820000
    95  H          0.87350000       0.84180000       0.75820000
    96  H          0.62650000       0.34180000       0.74180000
    97  C          0.40654000       0.13783000       0.37262000
    98  C          0.09346000       0.63783000       0.12738000
    99  C          0.59346000       0.86217000       0.62738000
   100  C          0.90654000       0.36217000       0.87262000
   101  C          0.38085000      -0.00284000       0.25122000
   102  C          0.11915000       0.49716000       0.24878000
   103  C          0.61915000       0.00284000       0.74878000
   104  C          0.88085000       0.50284000       0.75122000
   105  H          0.41380000       0.93630000       0.22160000
   106  H          0.08620000       0.43630000       0.27840000
   107  H          0.58620000       0.06370000       0.77840000
   108  H          0.91380000       0.56370000       0.72160000
   109  C          0.83914000       0.05464000       0.55813000
   110  C          0.66086000       0.55464000       0.94187000
   111  C          0.16086000       0.94536000       0.44187000
   112  C          0.33914000       0.44536000       0.05813000
   113  H          0.92100000       0.02540000       0.58460000
   114  H          0.57900000       0.52540000       0.91540000
   115  H          0.07900000       0.97460000       0.41540000
   116  H          0.42100000       0.47460000       0.08460000
   117  C          0.78134000       0.14994000       0.59662000
   118  C          0.71866000       0.64994000       0.90338000
   119  C          0.21866000       0.85006000       0.40338000
   120  C          0.28134000       0.35006000       0.09662000
   121  H          0.82580000       0.18370000       0.64800000
   122  H          0.67420000       0.68370000       0.85200000
   123  H          0.17420000       0.81630000       0.35200000
   124  H          0.32580000       0.31630000       0.14800000
   125  C          0.27984000       0.17984000       0.33722000
   126  C          0.22016000       0.67984000       0.16278000
   127  C          0.72016000       0.82016000       0.66278000
   128  C          0.77984000       0.32016000       0.83722000
   129  H          0.24410000       0.24180000       0.36480000
   130  H          0.25590000       0.74180000       0.13520000
   131  H          0.75590000       0.75820000       0.63520000
   132  H          0.74410000       0.25820000       0.86480000
   133  C          0.26165000       0.03894000       0.21963000
   134  C          0.23835000       0.53894000       0.28037000
   135  C          0.73835000       0.96106000       0.78037000
   136  C          0.76165000       0.46106000       0.71963000
   137  H          0.21270000       0.00740000       0.16860000
   138  H          0.28730000       0.50740000       0.33140000
   139  H          0.78730000      -0.00740000       0.83140000
   140  H          0.71270000       0.49260000       0.66860000
