data_WIGREM
_symmetry_space_group_name_H-M    'P1'
_symmetry_Int_Tables_number       1
loop_
_symmetry_equiv_pos_site_id
_symmetry_equiv_pos_as_xyz
1 x,y,z
_cell_length_a                   8.092312
_cell_length_b                   8.936611
_cell_length_c                   12.1862
_cell_angle_alpha                94.66613
_cell_angle_beta                 92.37414
_cell_angle_gamma                113.14913
loop_
_atom_site_label
_atom_site_type_symbol
_atom_site_fract_x
_atom_site_fract_y
_atom_site_fract_z
     1  I          0.83669100       0.69006200       0.27041700
     2  I          0.16330900       0.30993800       0.72958300
     3  I         -0.00601110       0.31352100       0.06234700
     4  I          0.00601110       0.68647900       0.93765300
     5  F          0.13659000       0.95822000       0.44175000
     6  F          0.86341000       0.04178000       0.55825000
     7  F          0.25091000       0.44207000       0.28516000
     8  F          0.74909000       0.55793000       0.71484000
     9  F          0.82702000       0.94412000       0.10596000
    10  F          0.17298000       0.05588000       0.89404000
    11  F          0.31081000       0.28409000       0.44836000
    12  F          0.68919000       0.71591000       0.55164000
    13  C          0.19061500       0.20031400       0.36439000
    14  C          0.80938500       0.79968600       0.63561000
    15  C          0.03801400       0.19541300       0.19249000
    16  C          0.96198600       0.80458700       0.80751000
    17  C          0.15781500       0.27731300       0.28001000
    18  C          0.84218500       0.72268700       0.71999000
    19  C          0.94728700       0.02571100       0.19178000
    20  C          0.05271300       0.97428900       0.80822000
    21  C          0.10001400       0.03151300       0.35818000
    22  C          0.89998600       0.96848700       0.64182000
    23  C         -0.02171400       0.94478800       0.27419000
    24  C          0.02171400       0.05521200       0.72581000
    25  C          0.45141300       0.07961400       0.15719000
    26  C          0.54858700       0.92038600       0.84281000
    27  H          0.38050000       0.02430000       0.09280000
    28  H          0.61950000       0.97570000       0.90720000
    29  N          0.63711100       0.33071000       0.25918000
    30  N          0.36288900       0.66929000       0.74082000
    31  C          0.53231300       0.24691400       0.16729000
    32  C          0.46768700       0.75308600       0.83271000
    33  C          0.58211400       0.07731300       0.33081000
    34  C          0.41788600       0.92268700       0.66919000
    35  H          0.60570000       0.02090000       0.38610000
    36  H          0.39430000       0.97910000       0.61390000
    37  C          0.65741400       0.24641300       0.34119000
    38  C          0.34258600       0.75358700       0.65881000
    39  C          0.47221500      -0.00661300       0.23821000
    40  C          0.52778500       0.00661300       0.76179000
    41  C          0.77720000       0.34331600       0.43901100
    42  C          0.22280000       0.65668400       0.56098900
    43  H          0.88050000       0.42880000       0.41560000
    44  H          0.11950000       0.57120000       0.58440000
    45  H          0.81450000       0.27340000       0.47990000
    46  H          0.18550000       0.72660000       0.52010000
    47  H          0.71250000       0.39060000       0.48500000
    48  H          0.28750000       0.60940000       0.51500000
    49  C          0.50771500       0.34301500       0.07851000
    50  C          0.49228500       0.65698500       0.92149000
    51  H          0.47470000       0.42840000       0.11000000
    52  H          0.52530000       0.57160000       0.89000000
    53  H          0.41420000       0.27220000       0.02450000
    54  H          0.58580000       0.72780000       0.97550000
    55  H          0.61840000       0.39050000       0.04390000
    56  H          0.38160000       0.60950000       0.95610000
    57  C          0.38971800       0.80858600       0.22841200
    58  C          0.61028200       0.19141400       0.77158800
    59  H          0.33100000       0.76680000       0.15570000
    60  H          0.66900000       0.23320000       0.84430000
    61  H          0.30300000       0.77240000       0.28230000
    62  H          0.69700000       0.22760000       0.71770000
    63  H          0.48260000       0.76910000       0.24100000
    64  H          0.51740000       0.23090000       0.75900000
