data_WIGSAJ
_symmetry_space_group_name_H-M    'P1'
_symmetry_Int_Tables_number       1
loop_
_symmetry_equiv_pos_site_id
_symmetry_equiv_pos_as_xyz
1 x,y,z
_cell_length_a                   4.28474
_cell_length_b                   11.535513
_cell_length_c                   22.461517
_cell_angle_alpha                90.0
_cell_angle_beta                 93.7597
_cell_angle_gamma                90.0
loop_
_atom_site_label
_atom_site_type_symbol
_atom_site_fract_x
_atom_site_fract_y
_atom_site_fract_z
     1  I          0.21597500       0.46506300       0.64154200
     2  I          0.28402500       0.96506300       0.85845800
     3  I          0.78402500       0.53493700       0.35845800
     4  I          0.71597500       0.03493700       0.14154200
     5  F          0.16655000       0.67332000       0.54578900
     6  F          0.33345000       0.17332000       0.95421100
     7  F          0.83345000       0.32668000       0.45421100
     8  F          0.66655000       0.82668000       0.04578900
     9  F          0.59745000       0.29782000       0.55862900
    10  F          0.90255000       0.79782000       0.94137100
    11  F          0.40255000       0.70218000       0.44137100
    12  F          0.09745000       0.20218000       0.05862900
    13  C          0.33298000       0.58644000       0.52426140
    14  C          0.16702000       0.08644000       0.97573860
    15  C          0.66702000       0.41356000       0.47573860
    16  C          0.83298000       0.91356000       0.02426140
    17  C          0.54658000       0.39814000       0.53056140
    18  C          0.95342000       0.89814000       0.96943860
    19  C          0.45342000       0.60186000       0.46943860
    20  C          0.04658000       0.10186000       0.03056140
    21  C          0.37907000       0.48614000       0.55633140
    22  C          0.12093000       0.98614000       0.94366860
    23  C          0.62093000       0.51386000       0.44366860
    24  C          0.87907000       0.01386000       0.05633140
    25  N          0.50337000       0.91313000       0.74348120
    26  N         -0.00337000       0.41313000       0.75651880
    27  N          0.49663000       0.08687000       0.25651880
    28  N          0.00337000       0.58687000       0.24348120
    29  C          0.40608000       0.95744000       0.68907150
    30  C          0.09392000       0.45744000       0.81092850
    31  C          0.59392000       0.04256000       0.31092850
    32  C          0.90608000       0.54256000       0.18907150
    33  C          0.21961000       0.05714000       0.68593190
    34  C          0.28039000       0.55714000       0.81406810
    35  C          0.78039000       0.94286000       0.31406810
    36  C          0.71961000       0.44286000       0.18593190
    37  H          0.16360000       0.09230000       0.72090000
    38  H          0.33640000       0.59230000       0.77910000
    39  H          0.83640000       0.90770000       0.27910000
    40  H          0.66360000       0.40770000       0.22090000
    41  C          0.76401000       0.76105000       0.69502000
    42  C          0.73599000       0.26105000       0.80498000
    43  C          0.23599000       0.23895000       0.30498000
    44  C          0.26401000       0.73895000       0.19502000
    45  H          0.88390000       0.69390000       0.69880000
    46  H          0.61610000       0.19390000       0.80120000
    47  H          0.11610000       0.30610000       0.30120000
    48  H          0.38390000       0.80610000       0.19880000
    49  C          0.67549000       0.82065000       0.74510170
    50  C          0.82451000       0.32065000       0.75489830
    51  C          0.32451000       0.17935000       0.25489830
    52  C          0.17549000       0.67935000       0.24510170
    53  H          0.74480000       0.79210000       0.78240000
    54  H          0.75520000       0.29210000       0.71760000
    55  H          0.25520000       0.20790000       0.21760000
    56  H          0.24480000       0.70790000       0.28240000
    57  C          0.11971000       0.10315000       0.63249180
    58  C          0.38029000       0.60315000       0.86750820
    59  C          0.88029000       0.89685000       0.36750820
    60  C          0.61971000       0.39685000       0.13249180
    61  H         -0.00330000       0.16960000       0.63100000
    62  H          0.50330000       0.66960000       0.86900000
    63  H          0.00330000       0.83040000       0.36900000
    64  H          0.49670000       0.33040000       0.13100000
    65  C          0.48768000       0.90244000       0.63560150
    66  C          0.01232000       0.40244000       0.86439850
    67  C          0.51232000       0.09756000       0.36439850
    68  C         -0.01232000       0.59756000       0.13560150
    69  C          0.20191200       0.05045000       0.57942000
    70  C          0.29808800       0.55045000       0.92058000
    71  C          0.79808800       0.94955000       0.42058000
    72  C          0.70191200       0.44955000       0.07942000
    73  H          0.13450000       0.08260000       0.54290000
    74  H          0.36550000       0.58260000       0.95710000
    75  H          0.86550000       0.91740000       0.45710000
    76  H          0.63450000       0.41740000       0.04290000
    77  C          0.66949000       0.80405000       0.64062000
    78  C          0.83051000       0.30405000       0.85938000
    79  C          0.33051000       0.19595000       0.35938000
    80  C          0.16949000       0.69595000       0.14062000
    81  H          0.72800000       0.76680000       0.60630000
    82  H          0.77200000       0.26680000       0.89370000
    83  H          0.27200000       0.23320000       0.39370000
    84  H          0.22800000       0.73320000       0.10630000
    85  C          0.37851100       0.95315000       0.58107180
    86  C          0.12148900       0.45315000       0.91892820
    87  C          0.62148900       0.04685000       0.41892820
    88  C          0.87851100       0.54685000       0.08107180
    89  H          0.42900000       0.91890000       0.54540000
    90  H          0.07100000       0.41890000       0.95460000
    91  H          0.57100000       0.08110000       0.45460000
    92  H          0.92900000       0.58110000       0.04540000
