data_WIGSEN
_symmetry_space_group_name_H-M    'P1'
_symmetry_Int_Tables_number       1
loop_
_symmetry_equiv_pos_site_id
_symmetry_equiv_pos_as_xyz
1 x,y,z
_cell_length_a                   13.100914
_cell_length_b                   9.21986
_cell_length_c                   14.093614
_cell_angle_alpha                90.0
_cell_angle_beta                 110.08712
_cell_angle_gamma                90.0
loop_
_atom_site_label
_atom_site_type_symbol
_atom_site_fract_x
_atom_site_fract_y
_atom_site_fract_z
     1  I          0.95686300       0.39457400       0.60917300
     2  I          0.04313700       0.89457400       0.89082700
     3  I          0.04313700       0.60542600       0.39082700
     4  I          0.95686300       0.10542600       0.10917300
     5  I          0.80283400       0.77277500       0.53890400
     6  I          0.19716600       0.27277500       0.96109600
     7  I          0.19716600       0.22722500       0.46109600
     8  I          0.80283400       0.72722500       0.03890400
     9  F          0.69863000       0.42713000       0.50002000
    10  F          0.30137000       0.92713000      -0.00002000
    11  F          0.30137000       0.57287000       0.49998000
    12  F          0.69863000       0.07287000       0.00002000
    13  F          0.53913000       0.23344000       0.43053000
    14  F          0.46087000       0.73344000       0.06947000
    15  F          0.46087000       0.76656000       0.56947000
    16  F          0.53913000       0.26656000       0.93053000
    17  F          0.95273000       0.04924000       0.60433000
    18  F          0.04727000       0.54924000       0.89567000
    19  F          0.04727000       0.95076000       0.39567000
    20  F          0.95273000       0.45076000       0.10433000
    21  F          0.58263000       0.94876000       0.44723000
    22  F          0.41737000       0.44876000       0.05277000
    23  F          0.41737000       0.05124000       0.55277000
    24  F          0.58263000       0.55124000       0.94723000
    25  C          0.64255000       0.18717000       0.47354000
    26  C          0.35745000       0.68717000       0.02646000
    27  C          0.35745000       0.81283000       0.52646000
    28  C          0.64255000       0.31283000       0.97354000
    29  C          0.76995000      -0.00466000       0.52644000
    30  C          0.23005000       0.49534000       0.97356000
    31  C          0.23005000       0.00466000       0.47356000
    32  C          0.76995000       0.50466000       0.02644000
    33  C          0.84935000       0.09656000       0.56134000
    34  C          0.15065000       0.59656000       0.93866000
    35  C          0.15065000       0.90344000       0.43866000
    36  C          0.84935000       0.40344000       0.06134000
    37  C          0.83025000       0.24436000       0.55434000
    38  C          0.16975000       0.74436000       0.94566000
    39  C          0.16975000       0.75564000       0.44566000
    40  C          0.83025000       0.25564000       0.05434000
    41  C          0.72565000       0.28506000       0.51004000
    42  C          0.27435000       0.78506000      -0.01004000
    43  C          0.27435000       0.71494000       0.48996000
    44  C          0.72565000       0.21494000       0.01004000
    45  C          0.66515000       0.04287000       0.48244000
    46  C          0.33485000       0.54287000       0.01756000
    47  C          0.33485000       0.95713000       0.51756000
    48  C          0.66515000       0.45713000       0.98244000
    49  C          0.66715000       0.26437000       0.23594000
    50  C          0.33285000       0.76437000       0.26406000
    51  C          0.33285000       0.73563000       0.76406000
    52  C          0.66715000       0.23563000       0.73594000
    53  C          0.76545000       0.18877000       0.27684000
    54  C          0.23455000       0.68877000       0.22316000
    55  C          0.23455000       0.81123000       0.72316000
    56  C          0.76545000       0.31123000       0.77684000
    57  N          0.86385000       0.41247000       0.31974000
    58  N          0.13615000       0.91247000       0.18026000
    59  N          0.13615000       0.58753000       0.68026000
    60  N          0.86385000       0.08753000       0.81974000
    61  C          0.76687000       0.48258000       0.28055000
    62  C          0.23313000       0.98258000       0.21945000
    63  C          0.23313000       0.51742000       0.71945000
    64  C          0.76687000       0.01742000       0.78055000
    65  H          0.76720000       0.58340000       0.28190000
    66  H          0.23280000       0.08340000       0.21810000
    67  H          0.23280000       0.41660000       0.71810000
    68  H          0.76720000       0.91660000       0.78190000
    69  C          0.86215000       0.26978000       0.31904000
    70  C          0.13785000       0.76978000       0.18096000
    71  C          0.13785000       0.73022000       0.68096000
    72  C          0.86215000       0.23022000       0.81904000
    73  H          0.92730000       0.22000000       0.34750000
    74  H          0.07270000       0.72000000       0.15250000
    75  H          0.07270000       0.78000000       0.65250000
    76  H          0.92730000       0.28000000       0.84750000
    77  C          0.76606000       0.03778000       0.27334000
    78  C          0.23394000       0.53778000       0.22666000
    79  C          0.23394000       0.96222000       0.72666000
    80  C          0.76606000       0.46222000       0.77334000
    81  H          0.83140000      -0.01190000       0.30030000
    82  H          0.16860000       0.48810000       0.19970000
    83  H          0.16860000       0.01190000       0.69970000
    84  H          0.83140000       0.51190000       0.80030000
    85  C          0.57416000       0.03729000       0.19035000
    86  C          0.42584000       0.53729000       0.30965000
    87  C          0.42584000       0.96271000       0.80965000
    88  C          0.57416000       0.46271000       0.69035000
    89  H          0.50980000      -0.01420000       0.16140000
    90  H          0.49020000       0.48580000       0.33860000
    91  H          0.49020000       0.01420000       0.83860000
    92  H          0.50980000       0.51420000       0.66140000
    93  C          0.67036000       0.41507000       0.23985000
    94  C          0.32964000       0.91507000       0.26015000
    95  C          0.32964000       0.58493000       0.76015000
    96  C          0.67036000       0.08493000       0.73985000
    97  H          0.60660000       0.46860000       0.21460000
    98  H          0.39340000       0.96860000       0.28540000
    99  H          0.39340000       0.53140000       0.78540000
   100  H          0.60660000       0.03140000       0.71460000
   101  C          0.57136000       0.18349000       0.19245000
   102  C          0.42864000       0.68349000       0.30755000
   103  C          0.42864000       0.81651000       0.80755000
   104  C          0.57136000       0.31651000       0.69245000
   105  H          0.50530000       0.23130000       0.16470000
   106  H          0.49470000       0.73130000       0.33530000
   107  H          0.49470000       0.76870000       0.83530000
   108  H          0.50530000       0.26870000       0.66470000
   109  C          0.67207000       0.96161000       0.23075000
   110  C          0.32793000       0.46161000       0.26925000
   111  C          0.32793000       0.03839000       0.76925000
   112  C          0.67207000       0.53839000       0.73075000
   113  H          0.67310000       0.86090000       0.22860000
   114  H          0.32690000       0.36090000       0.27140000
   115  H          0.32690000       0.13910000       0.77140000
   116  H          0.67310000       0.63910000       0.72860000
