data_WIGTAK
_symmetry_space_group_name_H-M    'P1'
_symmetry_Int_Tables_number       1
loop_
_symmetry_equiv_pos_site_id
_symmetry_equiv_pos_as_xyz
1 x,y,z
_cell_length_a                   6.10883
_cell_length_b                   9.40136
_cell_length_c                   12.41137
_cell_angle_alpha                103.4035
_cell_angle_beta                 96.1824
_cell_angle_gamma                95.9215
loop_
_atom_site_label
_atom_site_type_symbol
_atom_site_fract_x
_atom_site_fract_y
_atom_site_fract_z
     1  I          0.72289700       0.19946500       0.58245300
     2  I          0.27710300       0.80053500       0.41754700
     3  I          0.74244700       0.71489500       0.83289300
     4  I          0.25755300       0.28510500       0.16710700
     5  F          0.33117000       0.87645000       0.91633000
     6  F          0.66883000       0.12355000       0.08367000
     7  F          0.14247000       0.10045000       0.86474000
     8  F          0.85753000       0.89955000       0.13526000
     9  F          0.30767000       0.24225000       0.72183000
    10  F          0.69233000       0.75775000       0.27817000
    11  C          0.59301000       0.89163000       0.79275000
    12  C          0.40699000       0.10837000       0.20725000
    13  C          0.58241000       0.08387000       0.69115000
    14  C          0.41759000       0.91613000       0.30885000
    15  C          0.67211000       0.96623000       0.71725000
    16  C          0.32789000       0.03377000       0.28275000
    17  C          0.41481000       0.94022000       0.84075000
    18  C          0.58519000       0.05978000       0.15925000
    19  C          0.40271100       0.12677000       0.74215000
    20  C          0.59728900       0.87323000       0.25785000
    21  C          0.31721100       0.05737000       0.81746000
    22  C          0.68278900       0.94263000       0.18254000
    23  F          0.84946000       0.92256000       0.66883000
    24  F          0.15054000       0.07744000       0.33117000
    25  N          0.93749000       0.46937000       0.88484000
    26  N          0.06251000       0.53063000       0.11516000
    27  C          0.16931100       0.50368000       0.93115000
    28  C          0.83068900       0.49632000       0.06885000
    29  H          0.25110000       0.55180000       0.88370000
    30  H          0.74890000       0.44820000       0.11630000
    31  H          0.23090000       0.41360000       0.93490000
    32  H          0.76910000       0.58640000       0.06510000
    33  C          0.81008900       0.39548000       0.95306000
    34  C          0.18991100       0.60452000       0.04694000
    35  H          0.86620000       0.30370000       0.95710000
    36  H          0.13380000       0.69630000       0.04290000
    37  H          0.65540000       0.37280000       0.92000000
    38  H          0.34460000       0.62720000       0.08000000
    39  H          0.89789000       0.44380000       0.81571300
    40  H          0.10211000       0.55620000       0.18428700
    41  H          0.10211000       0.55780000       0.18431300
    42  H          0.89789000       0.44220000       0.81568700
    43  N          0.06121000       0.64893000       0.55684000
    44  N          0.93879000       0.35107000       0.44316000
    45  C          0.83151100       0.59332000       0.50686000
    46  C          0.16848900       0.40668000       0.49314000
    47  H          0.76060000       0.67120000       0.48360000
    48  H          0.23940000       0.32880000       0.51640000
    49  H          0.74900000       0.56060000       0.56110000
    50  H          0.25100000       0.43940000       0.43890000
    51  C          0.83221100       0.46542000       0.40645000
    52  C          0.16778900       0.53458000       0.59355000
    53  H          0.68100000       0.42710000       0.37190000
    54  H          0.31900000       0.57290000       0.62810000
    55  H          0.91210000       0.49890000       0.35140000
    56  H          0.08790000       0.50110000       0.64860000
    57  H          0.04211000       0.71950000       0.60840000
    58  H          0.95789000       0.28050000       0.39160000
    59  H          0.95811000       0.27950000       0.39240000
    60  H          0.04189000       0.72050000       0.60760000
