data_WIGVAM
_symmetry_space_group_name_H-M    'P1'
_symmetry_Int_Tables_number       1
loop_
_symmetry_equiv_pos_site_id
_symmetry_equiv_pos_as_xyz
1 x,y,z
_cell_length_a                   12.05666
_cell_length_b                   6.14093
_cell_length_c                   21.30741
_cell_angle_alpha                90.0
_cell_angle_beta                 100.9174
_cell_angle_gamma                90.0
loop_
_atom_site_label
_atom_site_type_symbol
_atom_site_fract_x
_atom_site_fract_y
_atom_site_fract_z
     1  F          0.55163000       0.87884000       0.94803870
     2  F          0.94837000       0.37884000       0.55196130
     3  F          0.44837000       0.12116000       0.05196130
     4  F          0.05163000       0.62116000       0.44803870
     5  C          0.52384000       0.69127000       0.97348000
     6  C          0.97616000       0.19127000       0.52652000
     7  C          0.47616000       0.30873000       0.02652000
     8  C          0.02384000       0.80873000       0.47348000
     9  I          0.69960300       0.25268400       0.11849200
    10  I          0.80039700       0.75268400       0.38150800
    11  I          0.30039700       0.74731600       0.88150800
    12  I          0.19960300       0.24731600       0.61849200
    13  C          0.60384000       0.59266000       0.02012180
    14  C          0.89616000       0.09266000       0.47987820
    15  C          0.39616000       0.40734000       0.97987820
    16  C          0.10384000       0.90734000       0.52012180
    17  C          0.58014000       0.39876000       0.04730180
    18  C          0.91986000       0.89876000       0.45269820
    19  C          0.41986000       0.60124000       0.95269820
    20  C          0.08014000       0.10124000       0.54730180
    21  F          0.70333000       0.69084000       0.03806140
    22  F          0.79667000       0.19084000       0.46193860
    23  F          0.29667000       0.30916000       0.96193860
    24  F          0.20333000       0.80916000       0.53806140
    25  I          0.23804300       0.74190400       0.08701200
    26  I          0.26195700       0.24190400       0.41298800
    27  I          0.76195700       0.25809600       0.91298800
    28  I          0.73804300       0.75809600       0.58701200
    29  F          0.06603000       0.61444000       0.95798890
    30  F          0.43397000       0.11444000       0.54201110
    31  F          0.93397000       0.38556000       0.04201110
    32  F          0.56603000       0.88556000       0.45798890
    33  C          0.09474000       0.89326000       0.03562180
    34  C          0.40526000       0.39326000       0.46437820
    35  C          0.90526000       0.10674000       0.96437820
    36  C          0.59474000       0.60674000       0.53562180
    37  C          0.05774000       0.08856000       0.05482180
    38  C          0.44226000       0.58856000       0.44517820
    39  C          0.94226000       0.91144000       0.94517820
    40  C          0.55774000       0.41144000       0.55482180
    41  C          0.03464000       0.80657000       0.97968000
    42  C          0.46536000       0.30657000       0.52032000
    43  C          0.96536000       0.19343000       0.02032000
    44  C          0.53464000       0.69343000       0.47968000
    45  F          0.11133000       0.18215000       0.10950120
    46  F          0.38867000       0.68215000       0.39049880
    47  F          0.88867000       0.81785000       0.89049880
    48  F          0.61133000       0.31785000       0.60950120
    49  C          0.61915000       0.73826000       0.22552000
    50  C          0.88085000       0.23826000       0.27448000
    51  C          0.38085000       0.26174000       0.77448000
    52  C          0.11915000       0.76174000       0.72552000
    53  H          0.67280000       0.84780000       0.22680000
    54  H          0.82720000       0.34780000       0.27320000
    55  H          0.32720000       0.15220000       0.77320000
    56  H          0.17280000       0.65220000       0.72680000
    57  C          0.56195000       0.27397000       0.31392000
    58  C          0.93805000       0.77397000       0.18608000
    59  C          0.43805000       0.72603000       0.68608000
    60  C          0.06195000       0.22603000       0.81392000
    61  H          0.62120000       0.27690000       0.34890000
    62  H          0.87880000       0.77690000       0.15110000
    63  H          0.37880000       0.72310000       0.65110000
    64  H          0.12120000       0.22310000       0.84890000
    65  C          0.52715000       0.73387000       0.17472000
    66  C          0.97285000       0.23387000       0.32528000
    67  C          0.47285000       0.26613000       0.82528000
    68  C          0.02715000       0.76613000       0.67472000
    69  H          0.52160000       0.84250000       0.14380000
    70  H          0.97840000       0.34250000       0.35620000
    71  H          0.47840000       0.15750000       0.85620000
    72  H          0.02160000       0.65750000       0.64380000
    73  C          0.38045000       0.26207000       0.21032000
    74  C          0.11955000       0.76207000       0.28968000
    75  C          0.61955000       0.73793000       0.78968000
    76  C          0.88045000       0.23793000       0.71032000
    77  H          0.31960000       0.25620000       0.17620000
    78  H          0.18040000       0.75620000       0.32380000
    79  H          0.68040000       0.74380000       0.82380000
    80  H          0.81960000       0.24380000       0.67620000
    81  C          0.46114000       0.43147000       0.21437190
    82  C          0.03886000       0.93147000       0.28562810
    83  C          0.53886000       0.56853000       0.78562810
    84  C          0.96114000       0.06853000       0.71437190
    85  C          0.39315000       0.10718000       0.25713000
    86  C          0.10685000       0.60718000       0.24287000
    87  C          0.60685000       0.89282000       0.74287000
    88  C          0.89315000       0.39282000       0.75713000
    89  H          0.34020000      -0.00440000       0.25470000
    90  H          0.15980000       0.49560000       0.24530000
    91  H          0.65980000       0.00440000       0.74530000
    92  H          0.84020000       0.50440000       0.75470000
    93  N          0.44923000       0.58586000       0.16825150
    94  N          0.05077000       0.08586000       0.33174850
    95  N          0.55077000       0.41414000       0.83174850
    96  N          0.94923000       0.91414000       0.66825150
    97  C          0.55344000       0.43496000       0.26684170
    98  C          0.94656000       0.93496000       0.23315830
    99  C          0.44656000       0.56504000       0.73315830
   100  C          0.05344000       0.06504000       0.76684170
   101  N          0.63254000       0.59416000       0.27137160
   102  N          0.86746000       0.09416000       0.22862840
   103  N          0.36746000       0.40584000       0.72862840
   104  N          0.13254000       0.90584000       0.77137160
   105  C          0.48336000       0.11298000       0.30832000
   106  C          0.01664000       0.61298000       0.19168000
   107  C          0.51664000       0.88702000       0.69168000
   108  C          0.98336000       0.38702000       0.80832000
   109  H          0.49010000       0.00490000       0.33940000
   110  H          0.00990000       0.50490000       0.16060000
   111  H          0.50990000      -0.00490000       0.66060000
   112  H         -0.00990000       0.49510000       0.83940000
