data_WIHGOM
_symmetry_space_group_name_H-M    'P1'
_symmetry_Int_Tables_number       1
loop_
_symmetry_equiv_pos_site_id
_symmetry_equiv_pos_as_xyz
1 x,y,z
_cell_length_a                   10.76577
_cell_length_b                   11.94027
_cell_length_c                   12.69737
_cell_angle_alpha                65.6143
_cell_angle_beta                 84.3553
_cell_angle_gamma                71.6034
loop_
_atom_site_label
_atom_site_type_symbol
_atom_site_fract_x
_atom_site_fract_y
_atom_site_fract_z
     1  O          0.92596000       0.76486000       0.13756000
     2  O          0.07404000       0.23514000       0.86244000
     3  C          0.02599000       0.55298000       0.07068000
     4  C          0.97401000       0.44702000       0.92932000
     5  H          0.04450000       0.58760000       0.12030000
     6  H          0.95550000       0.41240000       0.87970000
     7  C          0.93608000       0.63308000       0.98238000
     8  C          0.06392000       0.36692000       0.01762000
     9  C          0.86769000       0.77018000       0.95689000
    10  C          0.13231000       0.22982000       0.04311000
    11  C          0.86459000       0.83359000       0.02999000
    12  C          0.13541000       0.16641000       0.97001000
    13  C          0.78359000       0.96539000       0.00281000
    14  C          0.21641000       0.03461000      -0.00281000
    15  C          0.72811000       0.02879000       0.07951000
    16  C          0.27189000       0.97121000       0.92049000
    17  H          0.76770000      -0.00450000       0.15430000
    18  H          0.23230000       0.00450000       0.84570000
    19  C          0.61931100       0.13601000       0.04701100
    20  C          0.38068900       0.86399000       0.95298900
    21  H          0.58610000       0.17400000       0.10070000
    22  H          0.41390000       0.82600000       0.89930000
    23  C          0.55391000       0.19309000       0.93541100
    24  C          0.44609000       0.80691000       0.06458900
    25  C          0.42111100       0.27481000       0.89751200
    26  C          0.57888900       0.72519000       0.10248800
    27  H          0.37380000       0.32340000       0.93990000
    28  H          0.62620000       0.67660000       0.06010000
    29  C          0.36141100       0.28441000       0.80201200
    30  C          0.63858900       0.71559000       0.19798800
    31  H          0.27420000       0.33970000       0.78060000
    32  H          0.72580000       0.66030000       0.21940000
    33  C          0.42631100       0.21339000       0.73281000
    34  C          0.57368900       0.78661000       0.26719000
    35  C          0.37271100       0.17281000       0.65991100
    36  C          0.62728900       0.82719000       0.34008900
    37  H          0.28650000       0.22000000       0.62740000
    38  H          0.71350000       0.78000000       0.37260000
    39  C          0.44151100       0.06811000       0.63571000
    40  C          0.55848900       0.93189000       0.36429000
    41  H          0.40180000       0.04600000       0.58660000
    42  H          0.59820000       0.95400000       0.41340000
    43  C          0.57331000       0.99049000       0.68319000
    44  C          0.42669000       0.00951000       0.31681000
    45  C          0.64331000       0.85929000       0.70179000
    46  C          0.35669000       0.14071000       0.29821000
    47  H          0.61840000       0.82170000       0.65740000
    48  H          0.38160000       0.17830000       0.34260000
    49  C          0.74839000       0.78458000       0.78428000
    50  C          0.25161000       0.21542000       0.21572000
    51  C          0.81419000       0.64988000       0.81379000
    52  C          0.18581000       0.35012000       0.18621000
    53  C          0.90548000       0.57958000       0.90558000
    54  C          0.09452000       0.42042000       0.09442000
    55  C          0.79059000       0.84128000       0.84979000
    56  C          0.20941000       0.15872000       0.15021000
    57  C          0.73529000       0.97159000       0.81629000
    58  C          0.26471000       0.02841000       0.18371000
    59  C          0.73129000       0.03239000       0.89119000
    60  C          0.26871000       0.96761000       0.10881000
    61  C          0.62001000       0.14299000       0.85851000
    62  C          0.37999000       0.85701000       0.14149000
    63  C          0.55801000       0.15199000       0.76031000
    64  C          0.44199000       0.84801000       0.23969000
    65  C          0.62909000       0.04539000       0.73409000
    66  C          0.37091000       0.95461000       0.26591000
    67  C          0.78359000       0.58818000       0.74198000
    68  C          0.21641000       0.41182000       0.25802000
    69  C          0.68841000       0.52359000       0.77759000
    70  C          0.31159000       0.47641000       0.22241000
    71  C          0.66111000       0.46891000       0.70679000
    72  C          0.33889000       0.53109000       0.29321000
    73  H          0.59610000       0.42570000       0.72940000
    74  H          0.40390000       0.57430000       0.27060000
    75  C          0.72401000       0.47541000       0.60661000
    76  C          0.27599000       0.52459000       0.39339000
    77  C          0.81891100       0.53801000       0.57469000
    78  C          0.18108900       0.46199000       0.42531000
    79  H          0.86410000       0.54240000       0.50560000
    80  H          0.13590000       0.45760000       0.49440000
    81  C          0.85021000       0.59511000       0.64101000
    82  C          0.14979000       0.40489000       0.35899000
    83  C          0.61721200       0.51291200       0.88631000
    84  C          0.38278800       0.48708800       0.11369000
    85  H          0.67940000       0.46210000       0.95280000
    86  H          0.32060000       0.53790000       0.04720000
    87  H          0.55080000       0.47010000       0.89330000
    88  H          0.44920000       0.52990000       0.10670000
    89  H          0.57460000       0.59930000       0.88450000
    90  H          0.42540000       0.40070000       0.11550000
    91  C          0.69461200       0.41371300       0.53231100
    92  C          0.30538800       0.58628700       0.46768900
    93  H          0.76830000       0.33730000       0.53920000
    94  H          0.23170000       0.66270000       0.46080000
    95  H          0.68140000       0.47590000       0.45130000
    96  H          0.31860000       0.52410000       0.54870000
    97  H          0.61510000       0.38820000       0.55850000
    98  H          0.38490000       0.61180000       0.44150000
    99  C          0.95551300       0.65991300       0.60441200
   100  C          0.04448700       0.34008700       0.39558800
   101  H          0.98560000       0.66230000       0.52830000
   102  H          0.01440000       0.33770000       0.47170000
   103  H          0.02920000       0.61150000       0.66100000
   104  H          0.97080000       0.38850000       0.33900000
   105  H          0.92050000       0.74820000       0.59990000
   106  H          0.07950000       0.25180000       0.40010000
   107  C          0.03391200       0.80311200       0.15281300
   108  C          0.96608800       0.19688800       0.84718700
   109  H          0.10030000       0.79170000       0.09640000
   110  H          0.89970000       0.20830000       0.90360000
   111  H          0.07230000       0.74980000       0.23130000
   112  H          0.92770000       0.25020000       0.76870000
   113  H          0.00310000       0.89400000       0.14120000
   114  H         -0.00310000       0.10600000       0.85880000
   115  Cl         0.98059000       0.94974000       0.36406000
   116  Cl         0.01941000       0.05026000       0.63594000
   117  C          0.86211800       0.09601700       0.33681700
   118  C          0.13788200       0.90398300       0.66318300
   119  C          0.77420000       0.10420000       0.41921700
   120  C          0.22580000       0.89580000       0.58078300
   121  H          0.77640000       0.03090000       0.48950000
   122  H          0.22360000       0.96910000       0.51050000
   123  C          0.68120000       0.21930000       0.39820000
   124  C          0.31880000       0.78070000       0.60180000
   125  H          0.61630000       0.22650000       0.45390000
   126  H          0.38370000       0.77350000       0.54610000
   127  C          0.67941800       0.32730000       0.29620000
   128  C          0.32058200       0.67270000       0.70380000
   129  H          0.61540000       0.40770000       0.28110000
   130  H          0.38460000       0.59230000       0.71890000
   131  C          0.77071900       0.31320000       0.21811700
   132  C          0.22928100       0.68680000       0.78188300
   133  H          0.77170000       0.38540000       0.14880000
   134  H          0.22830000       0.61460000       0.85120000
   135  C          0.86311500       0.19501900       0.23681400
   136  C          0.13688500       0.80498100       0.76318600
   137  H          0.92530000       0.18490000       0.18030000
   138  H          0.07470000       0.81510000       0.81970000
