data_WIHHIH
_symmetry_space_group_name_H-M    'P1'
_symmetry_Int_Tables_number       1
loop_
_symmetry_equiv_pos_site_id
_symmetry_equiv_pos_as_xyz
1 x,y,z
_cell_length_a                   12.0433
_cell_length_b                   13.1744
_cell_length_c                   13.6164
_cell_angle_alpha                98.8199
_cell_angle_beta                 97.6416
_cell_angle_gamma                98.0795
loop_
_atom_site_label
_atom_site_type_symbol
_atom_site_fract_x
_atom_site_fract_y
_atom_site_fract_z
     1  Cl         0.06924500       0.40908600       0.06734500
     2  Cl         0.93075500       0.59091400       0.93265500
     3  Cl         0.37451700       0.16010600       0.97118800
     4  Cl         0.62548300       0.83989400       0.02881200
     5  O          0.81712120       0.46860100       0.33123110
     6  O          0.18287880       0.53139900       0.66876890
     7  O          0.54845120       0.40750110       0.34057100
     8  O          0.45154880       0.59249890       0.65942900
     9  O          0.64573130       0.30488120       0.76696120
    10  O          0.35426870       0.69511880       0.23303880
    11  N          0.70878140       0.32576130       0.22579130
    12  N          0.29121860       0.67423870       0.77420870
    13  H          0.64701300       0.27881400       0.22351800
    14  H          0.35298700       0.72118600       0.77648200
    15  N          0.76964140       0.37848120       0.63318120
    16  N          0.23035860       0.62151880       0.36681880
    17  N          0.54032150       0.43594130       0.77702130
    18  N          0.45967850       0.56405870       0.22297870
    19  H          0.52620000       0.49041300       0.74811600
    20  H          0.47380000       0.50958700       0.25188400
    21  C          0.76733170       0.31647150       0.14296150
    22  C          0.23266830       0.68352850       0.85703850
    23  C          0.70889190       0.25593170       0.05276170
    24  C          0.29110810       0.74406830       0.94723830
    25  H          0.63300000       0.22240000       0.04950000
    26  H          0.36700000       0.77760000       0.95050000
    27  C          0.76142000       0.24478190       0.96835830
    28  C          0.23858000       0.75521810       0.03164170
    29  H          0.72080000       0.20410000       0.90710000
    30  H          0.27920000       0.79590000       0.09290000
    31  C          0.87232000       0.29216190       0.97179830
    32  C          0.12768000       0.70783810       0.02820170
    33  H          0.90850000       0.28470000       0.91390000
    34  H          0.09150000       0.71530000       0.08610000
    35  C          0.92838190       0.35059180       0.06200170
    36  C          0.07161810       0.64940820       0.93799830
    37  C          0.87925180       0.36399170       0.14788160
    38  C          0.12074820       0.63600830       0.85211840
    39  H          0.92060000       0.40460000       0.20880000
    40  H          0.07940000       0.59540000       0.79120000
    41  C          0.73541160       0.39829150       0.31115140
    42  C          0.26458840       0.60170850       0.68884860
    43  C          0.64341160       0.39153140       0.37878150
    44  C          0.35658840       0.60846860       0.62121850
    45  C          0.66939160       0.38155140       0.48076150
    46  C          0.33060840       0.61844860       0.51923850
    47  C          0.58745160       0.40028150       0.55427140
    48  C          0.41254840       0.59971850       0.44572860
    49  H          0.55130000       0.46180000       0.54140000
    50  H          0.44870000       0.53820000       0.45860000
    51  C          0.49467170       0.30691150       0.54984150
    52  C          0.50532830       0.69308850       0.45015850
    53  C          0.51532000       0.20524180       0.53512000
    54  C          0.48468000       0.79475820       0.46488000
    55  H          0.58820000       0.19170000       0.52310000
    56  H          0.41180000       0.80830000       0.47690000
    57  C          0.43062000       0.12299180       0.53772000
    58  C          0.56938000       0.87700820       0.46228000
    59  H          0.44670000       0.05400000       0.52630000
    60  H          0.55330000       0.94600000       0.47370000
    61  C          0.32362000       0.13851170       0.55636180
    62  C          0.67638000       0.86148830       0.44363820
    63  C          0.30305190       0.24002170       0.57174180
    64  C          0.69694810       0.75997830       0.42825820
    65  H          0.23050000       0.25340000       0.58510000
    66  H          0.76950000       0.74660000       0.41490000
    67  C          0.38716180       0.32285160       0.56791170
    68  C          0.61283820       0.67714840       0.43208830
    69  H          0.37060000       0.39170000       0.57790000
    70  H          0.62940000       0.60830000       0.42210000
    71  C          0.23302000       0.04832000       0.56083000
    72  C          0.76698000       0.95168000       0.43917000
    73  H          0.24440000       0.98600000       0.51620000
    74  H          0.75560000       0.01400000       0.48380000
    75  H          0.15800000       0.06530000       0.53910000
    76  H          0.84200000       0.93470000       0.46090000
    77  H          0.23790000       0.03500000       0.63000000
    78  H          0.76210000       0.96500000       0.37000000
    79  C          0.67166160       0.42999150       0.65690150
    80  C          0.32833840       0.57000850       0.34309850
    81  C          0.71202180       0.54771150       0.68337160
    82  C          0.28797820       0.45228850       0.31662840
    83  H          0.76730000       0.56390000       0.74550000
    84  H          0.23270000       0.43610000       0.25450000
    85  H          0.64690000       0.58310000       0.69300000
    86  H          0.35310000       0.41690000       0.30700000
    87  H          0.74770000       0.57160000       0.62850000
    88  H          0.25230000       0.42840000       0.37150000
    89  C          0.61944170       0.38350150       0.74023150
    90  C          0.38055830       0.61649850       0.25976850
    91  C          0.46771170       0.40450170       0.84450150
    92  C          0.53228830       0.59549830       0.15549850
    93  C          0.40332000       0.47574190       0.88334170
    94  C          0.59668000       0.52425810       0.11665830
    95  H          0.40950000       0.54280000       0.86490000
    96  H          0.59050000       0.45720000       0.13510000
    97  C          0.33012000       0.44932000       0.94892000
    98  C          0.66988000       0.55068000       0.05108000
    99  H          0.28580000       0.49830000       0.97470000
   100  H          0.71420000       0.50170000       0.02530000
   101  C          0.32062000       0.35282000       0.97722000
   102  C          0.67938000       0.64718000       0.02278000
   103  H          0.27070000       0.33450000       0.02250000
   104  H          0.72930000       0.66550000       0.97750000
   105  C          0.38552000       0.28392000       0.93792000
   106  C          0.61448000       0.71608000       0.06208000
   107  C          0.45898190       0.30716180       0.87165180
   108  C          0.54101810       0.69283820       0.12834820
   109  H          0.50230000       0.25750000       0.84540000
   110  H          0.49770000       0.74250000       0.15460000
   111  C          0.86858170       0.38736150       0.71182150
   112  C          0.13141830       0.61263850       0.28817850
   113  H          0.84500000       0.40700000       0.77810000
   114  H          0.15500000       0.59300000       0.22190000
   115  H          0.92690000       0.44480000       0.70320000
   116  H          0.07310000       0.55520000       0.29680000
   117  C          0.92249180       0.29074160       0.71337150
   118  C          0.07750820       0.70925840       0.28662850
   119  C          0.03937190       0.30231190       0.74240180
   120  C          0.96062810       0.69768810       0.25759820
   121  H          0.08420000       0.36970000       0.75540000
   122  H          0.91580000       0.63030000       0.24460000
   123  C          0.09062000       0.21582000       0.75252000
   124  C          0.90938000       0.78418000       0.24748000
   125  H          0.17040000       0.22400000       0.77250000
   126  H          0.82960000       0.77600000       0.22750000
   127  C          0.02612000       0.11852000       0.73342000
   128  C          0.97388000       0.88148000       0.26658000
   129  H          0.06120000       0.05940000       0.74100000
   130  H          0.93880000       0.94060000       0.25900000
   131  C          0.90952000       0.10612000       0.70322000
   132  C          0.09048000       0.89388000       0.29678000
   133  H          0.86540000       0.03830000       0.68880000
   134  H          0.13460000       0.96170000       0.31120000
   135  C          0.85742000       0.19224170       0.69390180
   136  C          0.14258000       0.80775830       0.30609820
   137  H          0.77750000       0.18380000       0.67430000
   138  H          0.22250000       0.81620000       0.32570000
   139  C          0.76984160       0.36289140       0.53256140
   140  C          0.23015840       0.63710860       0.46743860
   141  C          0.86291160       0.32344140       0.48573140
   142  C          0.13708840       0.67655860       0.51426860
   143  C          0.97556170       0.37252150       0.51102150
   144  C          0.02443830       0.62747850       0.48897850
   145  H         -0.00410000       0.43200000       0.56290000
   146  H          0.00410000       0.56800000       0.43710000
   147  C          0.05804170       0.33489150       0.46075160
   148  C          0.94195830       0.66510850       0.53924840
   149  H          0.13460000       0.36910000       0.47870000
   150  H          0.86540000       0.63090000       0.52130000
   151  C          0.03112180       0.24803150       0.38447160
   152  C          0.96887820       0.75196850       0.61552840
   153  C          0.91830180       0.19821150       0.36065160
   154  C          0.08169820       0.80178850       0.63934840
   155  H          0.89830000       0.13810000       0.30960000
   156  H          0.10170000       0.86190000       0.69040000
   157  C          0.83515170       0.23516140       0.41039150
   158  C          0.16484830       0.76483860       0.58960850
   159  H          0.75880000       0.20030000       0.39320000
   160  H          0.24120000       0.79970000       0.60680000
   161  C          0.12052000       0.20846180       0.32832000
   162  C          0.87948000       0.79153820       0.67168000
   163  H          0.12540000       0.24210000       0.26930000
   164  H          0.87460000       0.75790000       0.73070000
   165  H          0.10020000       0.13290000       0.30660000
   166  H          0.89980000       0.86710000       0.69340000
   167  H          0.19420000       0.22460000       0.37270000
   168  H          0.80580000       0.77540000       0.62730000
   169  O          0.53278170       0.16259150       0.23712000
   170  O          0.46721830       0.83740850       0.76288000
   171  C          0.41752000       0.16552000       0.25302000
   172  C          0.58248000       0.83448000       0.74698000
   173  H          0.37650000       0.19640000       0.20010000
   174  H          0.62350000       0.80360000       0.79990000
   175  H          0.41560000       0.20730000       0.31950000
   176  H          0.58440000       0.79270000       0.68050000
   177  C          0.36443000       0.05392000       0.24813000
   178  C          0.63557000       0.94608000       0.75187000
   179  H          0.35760000       0.03900000       0.31630000
   180  H          0.64240000       0.96100000       0.68370000
   181  H          0.28810000       0.03850000       0.20660000
   182  H          0.71190000       0.96150000       0.79340000
   183  C          0.44274000      -0.00793000       0.20134000
   184  C          0.55726000       0.00793000       0.79866000
   185  H          0.44660000       0.92810000       0.23050000
   186  H          0.55340000       0.07190000       0.76950000
   187  H          0.41750000       0.97210000       0.12770000
   188  H          0.58250000       0.02790000       0.87230000
   189  C          0.55263000       0.05953000       0.22285000
   190  C          0.44737000       0.94047000       0.77715000
   191  H          0.59780000       0.04570000       0.28410000
   192  H          0.40220000       0.95430000       0.71590000
   193  H          0.59510000       0.04660000       0.16600000
   194  H          0.40490000       0.95340000       0.83400000
   195  C          0.88433000       0.01203000      -0.00084000
   196  C          0.11567000      -0.01203000       0.00084000
   197  H          0.87030000       0.04860000       0.94150000
   198  H          0.12970000       0.95140000       0.05850000
   199  H          0.81260000       0.00040000       0.02710000
   200  H          0.18740000      -0.00040000       0.97290000
   201  C          0.97353000       0.07972000       0.07813000
   202  C          0.02647000       0.92028000       0.92187000
   203  H          0.95100000       0.14870000       0.09650000
   204  H          0.04900000       0.85130000       0.90350000
   205  H          0.98230000       0.04760000       0.13930000
   206  H          0.01770000       0.95240000       0.86070000
   207  C          0.08323000       0.09202000       0.03793000
   208  C          0.91677000       0.90798000       0.96207000
   209  H          0.14400000       0.13240000       0.09150000
   210  H          0.85600000       0.86760000       0.90850000
   211  H          0.07630000       0.13170000       0.98180000
   212  H          0.92370000       0.86830000       0.01820000
