data_WIKWEW
_symmetry_space_group_name_H-M    'P1'
_symmetry_Int_Tables_number       1
loop_
_symmetry_equiv_pos_site_id
_symmetry_equiv_pos_as_xyz
1 x,y,z
_cell_length_a                   7.20224
_cell_length_b                   12.19747
_cell_length_c                   17.532614
_cell_angle_alpha                90.0
_cell_angle_beta                 90.0
_cell_angle_gamma                90.0
loop_
_atom_site_label
_atom_site_type_symbol
_atom_site_fract_x
_atom_site_fract_y
_atom_site_fract_z
     1  Cl         0.48462000       0.18222000       0.41395150
     2  Cl         0.01538000       0.81778000       0.91395150
     3  Cl        -0.01538000       0.31778000       0.58604850
     4  Cl         0.51538000       0.68222000       0.08604850
     5  H          0.54029800       0.20313400       0.46151700
     6  H          0.95970200       0.79686600       0.96151700
     7  H          0.04029800       0.29686600       0.53848300
     8  H          0.45970200       0.70313400       0.03848300
     9  O          0.95353000       0.55484000       0.97856000
    10  O          0.54647000       0.44516000       0.47856000
    11  O          0.45353000       0.94516000       0.02144000
    12  O          0.04647000       0.05484000       0.52144000
    13  C          0.07571000       0.53218000       0.04285000
    14  C          0.42429000       0.46782000       0.54285000
    15  C          0.57571000       0.96782000       0.95715000
    16  C          0.92429000       0.03218000       0.45715000
    17  N          0.07917000       0.72606000       0.07784000
    18  N          0.42083000       0.27394000       0.57784000
    19  N          0.57917000       0.77394000       0.92216000
    20  N          0.92083000       0.22606000       0.42216000
    21  O          0.87951000       0.53886000       0.86006000
    22  O          0.62049000       0.46114000       0.36006000
    23  O          0.37951000       0.96114000       0.13994000
    24  O          0.12049000       0.03886000       0.63994000
    25  O          0.17148000       0.49485000       0.89586000
    26  O          0.32852000       0.50515000       0.39586000
    27  O          0.67148000       0.00515000       0.10414000
    28  O          0.82852000      -0.00515000       0.60414000
    29  C          0.01701000       0.61307000       0.10305000
    30  C          0.48299000       0.38693000       0.60305000
    31  C          0.51701000       0.88693000       0.89695000
    32  C         -0.01701000       0.11307000       0.39695000
    33  C          0.05271300       0.41358000       0.06535000
    34  C          0.44728700       0.58642000       0.56535000
    35  C          0.55271300       0.08642000       0.93465000
    36  C          0.94728700       0.91358000       0.43465000
    37  C          0.09411200       0.59008000       0.18165000
    38  C          0.40588800       0.40992000       0.68165000
    39  C          0.59411200       0.90992000       0.81835000
    40  C          0.90588800       0.09008000       0.31835000
    41  C          0.20901700       0.34861100       0.07476000
    42  C          0.29098300       0.65138900       0.57476000
    43  C          0.70901700       0.15138900       0.92524000
    44  C          0.79098300       0.84861100       0.42524000
    45  C         -0.00061100       0.81858000       0.12026000
    46  C          0.50061100       0.18142000       0.62026000
    47  C          0.49938900       0.68142000       0.87974000
    48  C          0.00061100       0.31858000       0.37974000
    49  C          0.01761400       0.52597000       0.90974000
    50  C          0.48238600       0.47403000       0.40974000
    51  C          0.51761400       0.97403000       0.09026000
    52  C         -0.01761400       0.02597000       0.59026000
    53  C          0.86880000       0.26221500       0.09951000
    54  C          0.63120000       0.73778500       0.59951000
    55  C          0.36880000       0.23778500       0.90049000
    56  C          0.13120000       0.76221500       0.40049000
    57  C          0.88238400       0.36961100       0.07687000
    58  C          0.61761600       0.63038900       0.57687000
    59  C          0.38238400       0.13038900       0.92313000
    60  C          0.11761600       0.86961100       0.42313000
    61  C          0.18330000       0.24121200       0.09758000
    62  C          0.31670000       0.75878800       0.59758000
    63  C          0.68330000       0.25878800       0.90242000
    64  C          0.81670000       0.74121200       0.40242000
    65  C          0.02040000       0.19651200       0.11078000
    66  C          0.47960000       0.80348800       0.61078000
    67  C          0.52040000       0.30348800       0.88922000
    68  C          0.97960000       0.69651200       0.38922000
    69  C          0.91880000       0.50611400       0.78101000
    70  C          0.58120000       0.49388600       0.28101000
    71  C          0.41880000      -0.00611400       0.21899000
    72  C          0.08120000       0.00611400       0.71899000
    73  C          0.97270000       0.59571700       0.74199000
    74  C          0.52730000       0.40428300       0.24199000
    75  C          0.47270000       0.90428300       0.25801000
    76  C          0.02730000       0.09571700       0.75801000
    77  H          0.20415800       0.54390000       0.03061300
    78  H          0.29584200       0.45610000       0.53061300
    79  H          0.70415800       0.95610000       0.96938700
    80  H          0.79584200       0.04390000       0.46938700
    81  H          0.88423700       0.61132600       0.10765400
    82  H          0.61576300       0.38867400       0.60765400
    83  H          0.38423700       0.88867400       0.89234600
    84  H          0.11576300       0.11132600       0.39234600
    85  H          0.04968800       0.64440700       0.21669000
    86  H          0.45031200       0.35559300       0.71669000
    87  H          0.54968800       0.85559300       0.78331000
    88  H          0.95031200       0.14440700       0.28331000
    89  H          0.22736300       0.59182700       0.18021600
    90  H          0.27263700       0.40817300       0.68021600
    91  H          0.72736300       0.90817300       0.81978400
    92  H          0.77263700       0.09182700       0.31978400
    93  H          0.05343900       0.51879400       0.19780800
    94  H          0.44656100       0.48120600       0.69780800
    95  H          0.55343900       0.98120600       0.80219200
    96  H          0.94656100       0.01879400       0.30219200
    97  H          0.32968500       0.37879900       0.06481400
    98  H          0.17031500       0.62120100       0.56481400
    99  H          0.82968500       0.12120100       0.93518600
   100  H          0.67031500       0.87879900       0.43518600
   101  H          0.04252500       0.88676500       0.09957600
   102  H          0.45747500       0.11323500       0.59957600
   103  H          0.54252500       0.61323500       0.90042400
   104  H          0.95747500       0.38676500       0.40042400
   105  H          0.03910000       0.81203700       0.17231000
   106  H          0.46090000       0.18796300       0.67231000
   107  H          0.53910000       0.68796300       0.82769000
   108  H          0.96090000       0.31203700       0.32769000
   109  H          0.86628300       0.81614400       0.11802100
   110  H          0.63371700       0.18385600       0.61802100
   111  H          0.36628300       0.68385600       0.88197900
   112  H          0.13371700       0.31614400       0.38197900
   113  H          0.74902600       0.22935700       0.10619200
   114  H          0.75097400       0.77064300       0.60619200
   115  H          0.24902600       0.27064300       0.89380800
   116  H          0.25097400       0.72935700       0.39380800
   117  H          0.77356500       0.41442100       0.07164200
   118  H          0.72643500       0.58557900       0.57164200
   119  H          0.27356500       0.08557900       0.92835800
   120  H          0.22643500       0.91442100       0.42835800
   121  H          0.28691200       0.19408000       0.10743700
   122  H          0.21308800       0.80592000       0.60743700
   123  H          0.78691200       0.30592000       0.89256300
   124  H          0.71308800       0.69408000       0.39256300
   125  H          0.00413800       0.12139700       0.12571500
   126  H          0.49586200       0.87860300       0.62571500
   127  H          0.50413800       0.37860300       0.87428500
   128  H         -0.00413800       0.62139700       0.37428500
   129  H          0.01347500       0.45029600       0.78125500
   130  H          0.48652500       0.54970400       0.28125500
   131  H          0.51347500       0.04970400       0.21874500
   132  H         -0.01347500       0.95029600       0.71874500
   133  H          0.80740400       0.47707200       0.75928600
   134  H          0.69259600       0.52292800       0.25928600
   135  H          0.30740400       0.02292800       0.24071400
   136  H          0.19259600       0.97707200       0.74071400
   137  H          0.00074000       0.57995600       0.68956300
   138  H          0.49926000       0.42004400       0.18956300
   139  H          0.50074000       0.92004400       0.31043700
   140  H         -0.00074000       0.07995600       0.81043700
   141  H          0.08306300       0.62313300       0.76669300
   142  H          0.41693700       0.37686700       0.26669300
   143  H          0.58306300       0.87686700       0.23330700
   144  H          0.91693700       0.12313300       0.73330700
   145  H          0.87699200       0.64990800       0.74472400
   146  H          0.62300800       0.35009200       0.24472400
   147  H          0.37699200       0.85009200       0.25527600
   148  H          0.12300800       0.14990800       0.75527600
   149  H          0.16728400       0.73361600       0.03714900
   150  H          0.33271600       0.26638400       0.53714900
   151  H          0.66728400       0.76638400       0.96285100
   152  H          0.83271600       0.23361600       0.46285100
