data_WIKZOF
_symmetry_space_group_name_H-M    'P1'
_symmetry_Int_Tables_number       1
loop_
_symmetry_equiv_pos_site_id
_symmetry_equiv_pos_as_xyz
1 x,y,z
_cell_length_a                   12.4124
_cell_length_b                   13.7665
_cell_length_c                   13.8555
_cell_angle_alpha                110.633
_cell_angle_beta                 106.863
_cell_angle_gamma                106.943
loop_
_atom_site_label
_atom_site_type_symbol
_atom_site_fract_x
_atom_site_fract_y
_atom_site_fract_z
     1  P          0.00000000      -0.00000000      -0.00000000
     2  F          0.13223000       0.09774000       0.07373000
     3  F          0.86777000       0.90226000       0.92627000
     4  F          0.02074000       0.96597000       0.89097000
     5  F          0.97926000       0.03403000       0.10903000
     6  F          0.04465000       0.91727000       0.02973000
     7  F          0.95535000       0.08273000       0.97027000
     8  C          0.82813000       0.87163000       0.23283000
     9  C          0.17187000       0.12837000       0.76717000
    10  C          0.86103000       0.83013000       0.30663000
    11  C          0.13897000       0.16987000       0.69337000
    12  C          0.77243000       0.73353000       0.29783000
    13  C          0.22757000       0.26647000       0.70217000
    14  C          0.64913000       0.67682000       0.21552000
    15  C          0.35087000       0.32318000       0.78448000
    16  C          0.61273000       0.72132000       0.13852000
    17  C          0.38727000       0.27868000       0.86148000
    18  C          0.70403000       0.81922000       0.14773000
    19  C          0.29597000       0.18078000       0.85227000
    20  C          0.66883000       0.86273000       0.07153000
    21  C          0.33117000       0.13727000       0.92847000
    22  C          0.54804000       0.81163000      -0.00893000
    23  C          0.45196000       0.18837000       0.00893000
    24  C          0.45703000       0.71503000       0.98087000
    25  C          0.54297000       0.28497000       0.01913000
    26  C          0.48683000       0.66792000       0.05212000
    27  C          0.51317000       0.33208000       0.94788000
    28  C          0.55613000       0.57402000       0.20412000
    29  C          0.44387000       0.42598000       0.79588000
    30  C          0.58563000       0.52543000       0.27413000
    31  C          0.41437000       0.47457000       0.72587000
    32  C          0.49613000       0.42933000       0.26473000
    33  C          0.50387000       0.57067000       0.73527000
    34  C          0.37613000       0.37903000       0.18443000
    35  C          0.62387000       0.62097000       0.81557000
    36  C          0.34023000       0.42222000       0.10832000
    37  C          0.65977000       0.57778000       0.89168000
    38  C          0.42993000       0.52102000       0.11792000
    39  C          0.57007000       0.47898000       0.88208000
    40  C          0.39333000       0.56452000       0.04092000
    41  C          0.60667000       0.43548000       0.95908000
    42  C          0.27063000       0.50843000       0.95847000
    43  C          0.72937000       0.49157000       0.04153000
    44  C          0.18223000       0.40983000       0.94807000
    45  C          0.81777000       0.59017000       0.05193000
    46  C          0.21543000       0.36753000       0.02163000
    47  C          0.78457000       0.63247000       0.97837000
    48  H          0.88883400       0.93523100       0.23232900
    49  H          0.11116600       0.06476900       0.76767100
    50  H          0.94512900       0.86672400       0.37052500
    51  H          0.05487100       0.13327600       0.62947500
    52  H          0.79492900       0.70222600       0.34652600
    53  H          0.20507100       0.29777400       0.65347400
    54  H          0.73243200       0.92942900       0.07832800
    55  H          0.26756800       0.07057100       0.92167200
    56  H          0.52333000       0.83972700       0.93937300
    57  H          0.47667000       0.16027300       0.06062700
    58  H          0.37063400       0.68042900       0.91837100
    59  H          0.62936600       0.31957100       0.08162900
    60  H          0.67173100       0.56102600       0.33412600
    61  H          0.32826900       0.43897400       0.66587400
    62  H          0.52132900       0.40282600       0.31932600
    63  H          0.47867100       0.59717400       0.68067400
    64  H          0.31242800       0.31092500       0.17502400
    65  H          0.68757200       0.68907500       0.82497600
    66  H          0.24262700       0.53332400       0.90317500
    67  H          0.75737300       0.46667600       0.09682500
    68  H          0.09943000       0.37382600       0.88897400
    69  H          0.90057000       0.62617400       0.11102600
    70  H          0.15563200       0.29642900       0.01692700
    71  H          0.84436800       0.70357100       0.98307300
    72  C          0.19893000       0.79393000       0.86093000
    73  C          0.80107000       0.20607000       0.13907000
    74  C          0.27153000       0.82223000       0.80993000
    75  C          0.72847000       0.17777000       0.19007000
    76  C          0.26693000       0.73663000       0.71473000
    77  C          0.73307000       0.26337000       0.28527000
    78  C          0.18903000       0.62092000       0.66932000
    79  C          0.81097000       0.37908000       0.33068000
    80  C          0.11333000       0.58882000       0.72302000
    81  C          0.88667000       0.41118000       0.27698000
    82  C          0.11913000       0.67723000       0.82012000
    83  C          0.88087000       0.32277000       0.17988000
    84  C          0.04303000       0.64573000       0.87263000
    85  C          0.95697000       0.35427000       0.12737000
    86  C          0.96827000       0.53283000       0.83433000
    87  C          0.03173000       0.46717000       0.16567000
    88  C          0.96307000       0.44613000       0.74003000
    89  C          0.03693000       0.55387000       0.25997000
    90  C          0.03233000       0.47102000       0.68272000
    91  C          0.96767000       0.52898000       0.31728000
    92  C          0.17973000       0.52982000       0.56572000
    93  C          0.82027000       0.47018000       0.43428000
    94  C          0.24723000       0.55483000       0.50763000
    95  C          0.75277000       0.44517000       0.49237000
    96  C          0.23733000       0.46793000       0.40953000
    97  C          0.76267000       0.53207000       0.59047000
    98  C          0.16073000       0.35603000       0.36963000
    99  C          0.83927000       0.64397000       0.63037000
   100  C          0.08893000       0.32452000       0.42522000
   101  C          0.91107000       0.67548000       0.57478000
   102  C          0.09783000       0.41252000       0.52482000
   103  C          0.90217000       0.58748000       0.47518000
   104  C          0.02383000       0.38022000       0.58012000
   105  C          0.97617000       0.61978000       0.41988000
   106  C          0.94547000       0.26473000       0.53483000
   107  C          0.05453000       0.73527000       0.46517000
   108  C          0.93777000       0.17903000       0.43773000
   109  C          0.06223000       0.82097000       0.56227000
   110  C          0.00833000       0.20813000       0.38453000
   111  C         -0.00833000       0.79187000       0.61547000
   112  H          0.19943100       0.84552900       0.92383000
   113  H          0.80056900       0.15447100       0.07617000
   114  H          0.32503500       0.89783200       0.83223000
   115  H          0.67496500       0.10216800       0.16777000
   116  H          0.31553000       0.75902600       0.68102600
   117  H          0.68447000       0.24097400       0.31897400
   118  H          0.05153100       0.70742800       0.94242900
   119  H          0.94846900       0.29257200       0.05757100
   120  H          0.91616900       0.50682700       0.86922800
   121  H          0.08383100       0.49317300       0.13077200
   122  H          0.91297200       0.36462700       0.71172500
   123  H          0.08702800       0.63537300       0.28827500
   124  H          0.29892700       0.63082500       0.53192300
   125  H          0.70107300       0.36917500       0.46807700
   126  H          0.28413500       0.49383000       0.37223100
   127  H          0.71586500       0.50617000       0.62776900
   128  H          0.14943000       0.29462800       0.30092800
   129  H          0.85057000       0.70537200       0.69907200
   130  H          0.90097400       0.24292300       0.57092300
   131  H          0.09902600       0.75707700       0.42907700
   132  H          0.88366600       0.09973100       0.40982900
   133  H          0.11633400       0.90026900       0.59017100
   134  H          0.00233000       0.14822800       0.31592800
   135  H         -0.00233000       0.85177200       0.68407200
   136  C          0.18513000       0.81203000       0.19543000
   137  C          0.81487000       0.18797000       0.80457000
   138  C          0.23033000       0.73203000       0.16823000
   139  C          0.76967000       0.26797000       0.83177000
   140  C          0.31453000       0.72563000       0.25483000
   141  C          0.68547000       0.27437000       0.74517000
   142  C          0.35363000       0.79862000       0.37052200
   143  C          0.64637000       0.20138000       0.62947800
   144  C          0.30742000       0.88292000       0.39982000
   145  C          0.69258000       0.11708000       0.60018000
   146  C          0.22183000       0.88902000       0.31012000
   147  C          0.77817000       0.11098000       0.68988000
   148  C          0.17723000       0.97293000       0.33863000
   149  C          0.82277000       0.02707000       0.66137000
   150  C          0.21433000       0.04813000       0.45103000
   151  C          0.78567000       0.95187000       0.54897000
   152  C          0.29753000       0.04213000       0.53863000
   153  C          0.70247000       0.95787000       0.46137000
   154  C          0.34503000       0.96132000       0.51632000
   155  C          0.65497000       0.03868000       0.48368000
   156  C          0.44083000       0.79242000       0.46172000
   157  C          0.55917000       0.20758000       0.53828000
   158  C          0.48963000       0.71223000       0.43903000
   159  C          0.51037000       0.28777000       0.56097000
   160  C          0.57413000       0.70753000       0.52673000
   161  C          0.42587000       0.29247000       0.47327000
   162  C          0.61233000       0.78313000       0.63883000
   163  C          0.38767000       0.21687000       0.36117000
   164  C          0.56503000       0.86493000       0.66762000
   165  C          0.43497000       0.13507000       0.33238000
   166  C          0.47813000       0.87042000       0.57842000
   167  C          0.52187000       0.12958000       0.42158000
   168  C          0.43123000       0.95402000       0.60792000
   169  C          0.56877000       0.04598000       0.39208000
   170  C          0.47053000       0.02663000       0.72303000
   171  C          0.52947000       0.97337000       0.27697000
   172  C          0.55533000       0.02113000       0.81012000
   173  C          0.44467000       0.97887000       0.18988000
   174  C          0.60283000       0.94253000       0.78353000
   175  C          0.39717000       0.05747000       0.21647000
   176  H          0.12562900       0.81872500       0.13682600
   177  H          0.87437100       0.18127500       0.86317400
   178  H          0.20312800       0.67762600       0.08982700
   179  H          0.79687200       0.32237400       0.91017300
   180  H          0.34882500       0.67212300       0.23382200
   181  H          0.65117500       0.32787700       0.76617800
   182  H          0.12102800       0.97492400       0.27572500
   183  H          0.87897200       0.02507600       0.72427500
   184  H          0.18722900       0.10892600       0.47082500
   185  H          0.81277100       0.89107400       0.52917500
   186  H          0.32642700       0.10132500       0.61622600
   187  H          0.67357300       0.89867500       0.38377400
   188  H          0.46152700       0.66012400       0.35892500
   189  H          0.53847300       0.33987600       0.64107500
   190  H          0.60642900       0.65272600       0.50292500
   191  H          0.39357100       0.34727400       0.49707500
   192  H          0.67263100       0.78102700       0.70132800
   193  H          0.32736900       0.21897300       0.29867200
   194  H          0.44343000       0.08922700       0.74842600
   195  H          0.55657000       0.91077300       0.25157400
   196  H          0.57942900       0.07472700       0.88662800
   197  H          0.42057100       0.92527300       0.11337200
   198  H          0.66323200       0.93832700       0.84312900
   199  H          0.33676800       0.06167300       0.15687100
