data_WINTIW
_symmetry_space_group_name_H-M    'P1'
_symmetry_Int_Tables_number       1
loop_
_symmetry_equiv_pos_site_id
_symmetry_equiv_pos_as_xyz
1 x,y,z
_cell_length_a                   7.5113
_cell_length_b                   9.4685
_cell_length_c                   8.1422
_cell_angle_alpha                88.264
_cell_angle_beta                 112.692
_cell_angle_gamma                92.234
loop_
_atom_site_label
_atom_site_type_symbol
_atom_site_fract_x
_atom_site_fract_y
_atom_site_fract_z
     1  S          0.29111000       0.04971000       0.78211000
     2  S          0.70889000       0.95029000       0.21789000
     3  N          0.26623000       0.20222000       0.49713000
     4  N          0.73377000       0.79778000       0.50287000
     5  N          0.25213000       0.95788000       0.46482000
     6  N          0.74787000       0.04212000       0.53518000
     7  C          0.26783000       0.06933000       0.56853000
     8  C          0.73217000       0.93067000       0.43147000
     9  C          0.25004000       0.22883000       0.32783000
    10  C          0.74996000       0.77117000       0.67217000
    11  C          0.23714000       0.11593000       0.22534000
    12  C          0.76286000       0.88407000       0.77466000
    13  C          0.23563000       0.97997000       0.29673000
    14  C          0.76437000       0.02003000       0.70327000
    15  C          0.24797000       0.38014000       0.27026000
    16  C          0.75203000       0.61986000       0.72974000
    17  C          0.21176000       0.85136000       0.18934000
    18  C          0.78824000       0.14864000       0.81066000
    19  H          0.27140000       0.27330000       0.56740000
    20  H          0.72860000       0.72670000       0.43260000
    21  H          0.22840000       0.12530000       0.10640000
    22  H          0.77160000       0.87470000       0.89360000
    23  H          0.22850000       0.38240000       0.14750000
    24  H          0.77150000       0.61760000       0.85250000
    25  H          0.36460000       0.43140000       0.34960000
    26  H          0.63540000       0.56860000       0.65040000
    27  H          0.14950000       0.42040000       0.27950000
    28  H          0.85050000       0.57960000       0.72050000
    29  H          0.19450000       0.86460000       0.07750000
    30  H          0.80550000       0.13540000       0.92250000
    31  H          0.09560000       0.79460000       0.18050000
    32  H          0.90440000       0.20540000       0.81950000
    33  H          0.30960000       0.79150000       0.24160000
    34  H          0.69040000       0.20850000       0.75840000
    35  S          0.24301000       0.43889000       0.77311000
    36  S          0.75699000       0.56111000       0.22689000
    37  N          0.38073000       0.69797000       0.86483000
    38  N          0.61927000       0.30203000       0.13517000
    39  N          0.17064000       0.67687000       0.57993000
    40  N          0.82936000       0.32313000       0.42007000
    41  C          0.26663000       0.61557000       0.73653000
    42  C          0.73337000       0.38443000       0.26347000
    43  H          0.38440000       0.78870000       0.84840000
    44  H          0.61560000       0.21130000       0.15160000
    45  H          0.45540000       0.65370000       0.96640000
    46  H          0.54460000       0.34630000       0.03360000
    47  H          0.09940000       0.62670000       0.50540000
    48  H          0.90060000       0.37330000       0.49460000
    49  H          0.19640000       0.77160000       0.55240000
    50  H          0.80360000       0.22840000       0.44760000
