data_WIQNIV
_symmetry_space_group_name_H-M    'P1'
_symmetry_Int_Tables_number       1
loop_
_symmetry_equiv_pos_site_id
_symmetry_equiv_pos_as_xyz
1 x,y,z
_cell_length_a                   4.810219
_cell_length_b                   5.7952
_cell_length_c                   13.4625
_cell_angle_alpha                84.04811
_cell_angle_beta                 87.30212
_cell_angle_gamma                83.25612
loop_
_atom_site_label
_atom_site_type_symbol
_atom_site_fract_x
_atom_site_fract_y
_atom_site_fract_z
     1  Cl         0.37532000       0.12487190       0.21674900
     2  O          0.92695000       0.68175000       0.78978000
     3  O          0.62155000       0.00094000       0.75689810
     4  C          0.07639000       0.08367000       0.05723000
     5  H          0.17300000       0.93080000       0.05810000
     6  N          0.49546000       0.70336000       0.86538000
     7  H          0.34780000       0.79460000       0.88480000
     8  N          0.69217000       0.79786000       0.80057000
     9  C          0.12828000       0.22978000       0.12823000
    10  C          0.88389000       0.16277000       0.98577000
    11  H          0.84790000       0.06190000       0.93770000
    12  C          0.73998000       0.38547000       0.98167000
    13  C          0.52498000       0.45677000       0.90287000
    14  H          0.57510000       0.36340000       0.84570000
    15  H          0.34070000       0.41640000       0.93090000
    16  C          0.79509000       0.52968000       0.05353000
    17  H          0.69920000       0.68280000       0.05250000
    18  C         -0.01101000       0.45148000       0.12663000
    19  H          0.02500000       0.55080000       0.17520000
    20  Cl         0.89357190       0.86341170       0.38146900
    21  N          0.08746000       0.23535000       0.71542000
    22  H          0.20280000       0.30830000       0.74640000
    23  H          0.97100000       0.14910000       0.75010000
    24  C          0.66368000       0.68887000       0.44873000
    25  C          0.58069000       0.50067000       0.40543000
    26  H          0.64850000       0.46660000       0.34050000
    27  C          0.39919000       0.36637000       0.45883000
    28  H          0.34080000       0.23820000       0.42970000
    29  C          0.29798000       0.40996000       0.55323000
    30  C          0.08938000       0.25787000       0.60373000
    31  H          0.89970000       0.32220000       0.58180000
    32  H          0.12980000       0.09990000       0.58090000
    33  C          0.38529000       0.59617000       0.59593000
    34  H          0.31900000       0.62810000       0.66120000
    35  C          0.56998000       0.73627000       0.54293000
    36  H          0.63020000       0.86360000       0.57200000
