data_WISWAA
_symmetry_space_group_name_H-M    'P1'
_symmetry_Int_Tables_number       1
loop_
_symmetry_equiv_pos_site_id
_symmetry_equiv_pos_as_xyz
1 x,y,z
_cell_length_a                   4.85601
_cell_length_b                   15.8444
_cell_length_c                   32.7936
_cell_angle_alpha                90.0
_cell_angle_beta                 90.502
_cell_angle_gamma                90.0
loop_
_atom_site_label
_atom_site_type_symbol
_atom_site_fract_x
_atom_site_fract_y
_atom_site_fract_z
     1  C          0.43793000       0.14281100       0.18781500
     2  C          0.56207000       0.64281100       0.31218500
     3  C          0.56207000       0.85718900       0.81218500
     4  C          0.43793000       0.35718900       0.68781500
     5  C          0.48323000       0.22720100       0.18715500
     6  C          0.51677000       0.72720100       0.31284500
     7  C          0.51677000       0.77279900       0.81284500
     8  C          0.48323000       0.27279900       0.68715500
     9  C          0.68833000       0.26466100       0.16130500
    10  C          0.31167000       0.76466100       0.33869500
    11  C          0.31167000       0.73533900       0.83869500
    12  C          0.68833000       0.23533900       0.66130500
    13  C          0.04943000       0.23722100       0.10835500
    14  C          0.95057000       0.73722100       0.39164500
    15  C          0.95057000       0.76277900       0.89164500
    16  C          0.04943000       0.26277900       0.60835500
    17  C          0.18753000       0.18151110       0.08384500
    18  C          0.81247000       0.68151110       0.41615500
    19  C          0.81247000       0.81848890       0.91615500
    20  C          0.18753000       0.31848890       0.58384500
    21  H          0.32327500       0.20077100       0.06631600
    22  H          0.67672500       0.70077100       0.43368400
    23  H          0.67672500       0.79922900       0.93368400
    24  H          0.32327500       0.29922900       0.56631600
    25  C          0.12293000       0.09603110       0.08540500
    26  C          0.87707000       0.59603110       0.41459500
    27  C          0.87707000       0.90396890       0.91459500
    28  C          0.12293000       0.40396890       0.58540500
    29  C          0.92073000       0.06519110       0.11165500
    30  C          0.07927000       0.56519110       0.38834500
    31  C          0.07927000       0.93480890       0.88834500
    32  C          0.92073000       0.43480890       0.61165500
    33  H          0.88037300       0.00785800       0.11274500
    34  H          0.11962700       0.50785800       0.38725500
    35  H          0.11962700      -0.00785800       0.88725500
    36  H          0.88037300       0.49214200       0.61274500
    37  C          0.78233000       0.12243100       0.13598500
    38  C          0.21767000       0.62243100       0.36401500
    39  C          0.21767000       0.87756900       0.86401500
    40  C          0.78233000       0.37756900       0.63598500
    41  C          0.83793000       0.20875100       0.13518500
    42  C          0.16207000       0.70875100       0.36481500
    43  C          0.16207000       0.79124900       0.86481500
    44  C          0.83793000       0.29124900       0.63518500
    45  C          0.24853000       0.09472100       0.21395500
    46  C          0.75147000       0.59472100       0.28604500
    47  C          0.75147000       0.90527900       0.78604500
    48  C          0.24853000       0.40527900       0.71395500
    49  C          0.26443000       0.00682100       0.21551500
    50  C          0.73557000       0.50682100       0.28448500
    51  C          0.73557000      -0.00682100       0.78448500
    52  C          0.26443000       0.49317900       0.71551500
    53  H          0.39084900       0.97859100       0.19931700
    54  H          0.60915100       0.47859100       0.30068300
    55  H          0.60915100       0.02140900       0.80068300
    56  H          0.39084900       0.52140900       0.69931700
    57  C          0.09363000       0.96128900       0.24092500
    58  C          0.90637000       0.46128900       0.25907500
    59  C          0.90637000       0.03871100       0.75907500
    60  C          0.09363000       0.53871100       0.74092500
    61  C          0.89707000       0.00206100       0.26508500
    62  C          0.10293000       0.50206100       0.23491500
    63  C          0.10293000      -0.00206100       0.73491500
    64  C          0.89707000       0.49793900       0.76508500
    65  C          0.87907000       0.08832100       0.26364500
    66  C          0.12093000       0.58832100       0.23635500
    67  C          0.12093000       0.91167900       0.73635500
    68  C          0.87907000       0.41167900       0.76364500
    69  H          0.74958000       0.11609700       0.27948200
    70  H          0.25042000       0.61609700       0.22051800
    71  H          0.25042000       0.88390300       0.72051800
    72  H          0.74958000       0.38390300       0.77948200
    73  C          0.05313000       0.13466100       0.23869500
    74  C          0.94687000       0.63466100       0.26130500
    75  C          0.94687000       0.86533900       0.76130500
    76  C          0.05313000       0.36533900       0.73869500
    77  H          0.03973100       0.19321500       0.23838600
    78  H          0.96026900       0.69321500       0.26161400
    79  H          0.96026900       0.80678500       0.76161400
    80  H          0.03973100       0.30678500       0.73838600
    81  O          0.58632000       0.09100600       0.16198300
    82  O          0.41368000       0.59100600       0.33801700
    83  O          0.41368000       0.90899400       0.83801700
    84  O          0.58632000       0.40899400       0.66198300
    85  O          0.11913000       0.87522200       0.24263400
    86  O          0.88087000       0.37522200       0.25736600
    87  O          0.88087000       0.12477800       0.75736600
    88  O          0.11913000       0.62477800       0.74263400
    89  H          0.01616900       0.85200700       0.26716600
    90  H         -0.01616900       0.35200700       0.23283400
    91  H         -0.01616900       0.14799300       0.73283400
    92  H          0.01616900       0.64799300       0.76716600
    93  O          0.34033000       0.28035700       0.21200400
    94  O          0.65967000       0.78035700       0.28799600
    95  O          0.65967000       0.71964300       0.78799600
    96  O          0.34033000       0.21964300       0.71200400
    97  H          0.39326000       0.33997700       0.20769900
    98  H          0.60674000       0.83997700       0.29230100
    99  H          0.60674000       0.66002300       0.79230100
   100  H          0.39326000       0.16002300       0.70769900
   101  O          0.73638000       0.95230300       0.28922400
   102  O          0.26362000       0.45230300       0.21077600
   103  O          0.26362000       0.04769700       0.71077600
   104  O          0.73638000       0.54769700       0.78922400
   105  H          0.63322700       0.97958800       0.30328600
   106  H          0.36677300       0.47958800       0.19671400
   107  H          0.36677300       0.02041200       0.69671400
   108  H          0.63322700       0.52041200       0.80328600
   109  O          0.73093000       0.34306800       0.16255400
   110  O          0.26907000       0.84306800       0.33744600
   111  O          0.26907000       0.65693200       0.83744600
   112  O          0.73093000       0.15693200       0.66255400
   113  O          0.11553000       0.32014800       0.10774400
   114  O          0.88447000       0.82014800       0.39225600
   115  O          0.88447000       0.67985200       0.89225600
   116  O          0.11553000       0.17985200       0.60774400
   117  H         -0.01123300       0.34667100       0.12925300
   118  H          0.01123300       0.84667100       0.37074700
   119  H          0.01123300       0.65332900       0.87074700
   120  H         -0.01123300       0.15332900       0.62925300
   121  O          0.25593000       0.03963800       0.06093400
   122  O          0.74407000       0.53963800       0.43906600
   123  O          0.74407000       0.96036200       0.93906600
   124  O          0.25593000       0.46036200       0.56093400
   125  H          0.38403400       0.06232800       0.04928600
   126  H          0.61596600       0.56232800       0.45071400
   127  H          0.61596600       0.93767200       0.95071400
   128  H          0.38403400       0.43767200       0.54928600
   129  C          0.44843000       0.57895110       0.13324500
   130  C          0.55157000       0.07895110       0.36675500
   131  C          0.55157000       0.42104890       0.86675500
   132  C          0.44843000       0.92104890       0.63324500
   133  C          0.43293000       0.66580120       0.13889500
   134  C          0.56707000       0.16580120       0.36110500
   135  C          0.56707000       0.33419880       0.86110500
   136  C          0.43293000       0.83419880       0.63889500
   137  C          0.25483000       0.71405110       0.11617500
   138  C          0.74517000       0.21405110       0.38382500
   139  C          0.74517000       0.28594890       0.88382500
   140  C          0.25483000       0.78594890       0.61617500
   141  H          0.24726900       0.77195500       0.12065900
   142  H          0.75273100       0.27195500       0.37934100
   143  H          0.75273100       0.22804500       0.87934100
   144  H          0.24726900       0.72804500       0.62065900
   145  C          0.08553000       0.67825110       0.08660500
   146  C          0.91447000       0.17825110       0.41339500
   147  C          0.91447000       0.32174890       0.91339500
   148  C          0.08553000       0.82174890       0.58660500
   149  C          0.10224000       0.59129120       0.08136600
   150  C          0.89776000       0.09129120       0.41863400
   151  C          0.89776000       0.40870880       0.91863400
   152  C          0.10224000       0.90870880       0.58136600
   153  H         -0.01021300       0.56525700       0.06200700
   154  H          0.01021300       0.06525700       0.43799300
   155  H          0.01021300       0.43474300       0.93799300
   156  H         -0.01021300       0.93474300       0.56200700
   157  C          0.28224000       0.54276120       0.10428600
   158  C          0.71776000       0.04276120       0.39571400
   159  C          0.71776000       0.45723880       0.89571400
   160  C          0.28224000       0.95723880       0.60428600
   161  H          0.29038200       0.48480400       0.09995800
   162  H          0.70961800       0.98480400       0.40004200
   163  H          0.70961800       0.51519600       0.90004200
   164  H          0.29038200       0.01519600       0.59995800
   165  C          0.59885000       0.78379140       0.17707800
   166  C          0.40115000       0.28379140       0.32292200
   167  C          0.40115000       0.21620860       0.82292200
   168  C          0.59885000       0.71620860       0.67707800
   169  H          0.63805900       0.81506300       0.15272800
   170  H          0.36194100       0.31506300       0.34727200
   171  H          0.36194100       0.18493700       0.84727200
   172  H          0.63805900       0.68493700       0.65272800
   173  H          0.73461300       0.79660600       0.19759000
   174  H          0.26538700       0.29660600       0.30241000
   175  H          0.26538700       0.20339400       0.80241000
   176  H          0.73461300       0.70339400       0.69759000
   177  H          0.41960200       0.79903500       0.18678200
   178  H          0.58039800       0.29903500       0.31321800
   179  H          0.58039800       0.20096500       0.81321800
   180  H          0.41960200       0.70096500       0.68678200
   181  C          0.53087000       0.83394130       0.01742500
   182  C          0.46913000       0.33394130       0.48257500
   183  C          0.46913000       0.16605870       0.98257500
   184  C          0.53087000       0.66605870       0.51742500
   185  C          0.54207000       0.74756130       0.01130500
   186  C          0.45793000       0.24756130       0.48869500
   187  C          0.45793000       0.25243870       0.98869500
   188  C          0.54207000       0.75243870       0.51130500
   189  C          0.72026000       0.69770120       0.03342500
   190  C          0.27974000       0.19770120       0.46657500
   191  C          0.27974000       0.30229880       0.96657500
   192  C          0.72026000       0.80229880       0.53342500
   193  H          0.72340100       0.63978800       0.02882900
   194  H          0.27659900       0.13978800       0.47117100
   195  H          0.27659900       0.36021200       0.97117100
   196  H          0.72340100       0.86021200       0.52882900
   197  C          0.89567000       0.73251110       0.06248500
   198  C          0.10433000       0.23251110       0.43751500
   199  C          0.10433000       0.26748890       0.93751500
   200  C          0.89567000       0.76748890       0.56248500
   201  C          0.88446000       0.81910110       0.06761600
   202  C          0.11554000       0.31910110       0.43238400
   203  C          0.11554000       0.18089890       0.93238400
   204  C          0.88446000       0.68089890       0.56761600
   205  H          0.00177800       0.84442700       0.08655300
   206  H         -0.00177800       0.34442700       0.41344700
   207  H         -0.00177800       0.15557300       0.91344700
   208  H          0.00177800       0.65557300       0.58655300
   209  C          0.70506000       0.86896120       0.04554600
   210  C          0.29494000       0.36896120       0.45445400
   211  C          0.29494000       0.13103880       0.95445400
   212  C          0.70506000       0.63103880       0.54554600
   213  H          0.70273900       0.92697000       0.04984200
   214  H          0.29726100       0.42697000       0.45015800
   215  H          0.29726100       0.07303000       0.95015800
   216  H          0.70273900       0.57303000       0.54984200
   217  C          0.37425000       0.63089150       0.97198200
   218  C          0.62575000       0.13089150       0.52801800
   219  C          0.62575000       0.36910850       0.02801800
   220  C          0.37425000       0.86910850       0.47198200
   221  H          0.55564500       0.61705600       0.96266000
   222  H          0.44435500       0.11705600       0.53734000
   223  H          0.44435500       0.38294400       0.03734000
   224  H          0.55564500       0.88294400       0.46266000
   225  H          0.24232500       0.61914100       0.95077200
   226  H          0.75767500       0.11914100       0.54922800
   227  H          0.75767500       0.38085900       0.04922800
   228  H          0.24232500       0.88085900       0.45077200
   229  H          0.33239000       0.59764600       0.99560600
   230  H          0.66761000       0.09764600       0.50439400
   231  H          0.66761000       0.40235400       0.00439400
   232  H          0.33239000       0.90235400       0.49560600
   233  N          0.61873000       0.53058100       0.15936500
   234  N          0.38127000       0.03058100       0.34063500
   235  N          0.38127000       0.46941900       0.84063500
   236  N          0.61873000       0.96941900       0.65936500
   237  H          0.68630000       0.47994400       0.14533700
   238  H          0.31370000       0.97994400       0.35466300
   239  H          0.31370000       0.52005600       0.85466300
   240  H          0.68630000       0.02005600       0.64533700
   241  H          0.78570000       0.56624400       0.16973700
   242  H          0.21430000       0.06624400       0.33026300
   243  H          0.21430000       0.43375600       0.83026300
   244  H          0.78570000       0.93375600       0.66973700
   245  N          0.35677000       0.88543110       0.99276500
   246  N          0.64323000       0.38543110       0.50723500
   247  N          0.64323000       0.11456890       0.00723500
   248  N          0.35677000       0.61456890       0.49276500
   249  H          0.20120300       0.85023300       0.98299500
   250  H          0.79879700       0.35023300       0.51700500
   251  H          0.79879700       0.14976700       0.01700500
   252  H          0.20120300       0.64976700       0.48299500
   253  H          0.26960300       0.93063300       0.00969500
   254  H          0.73039700       0.43063300       0.49030500
   255  H          0.73039700       0.06936700       0.99030500
   256  H          0.26960300       0.56936700       0.50969500
   257  O          0.60473000       0.69613900       0.16835400
   258  O          0.39527000       0.19613900       0.33164600
   259  O          0.39527000       0.30386100       0.83164600
   260  O          0.60473000       0.80386100       0.66835400
   261  O          0.36337000       0.71775100       0.98219600
   262  O          0.63663000       0.21775100       0.51780400
   263  O          0.63663000       0.28224900       0.01780400
   264  O          0.36337000       0.78224900       0.48219600
