data_WITQAV
_symmetry_space_group_name_H-M    'P1'
_symmetry_Int_Tables_number       1
loop_
_symmetry_equiv_pos_site_id
_symmetry_equiv_pos_as_xyz
1 x,y,z
_cell_length_a                   19.235415
_cell_length_b                   6.54675
_cell_length_c                   10.94319
_cell_angle_alpha                90.0
_cell_angle_beta                 104.6222
_cell_angle_gamma                90.0
loop_
_atom_site_label
_atom_site_type_symbol
_atom_site_fract_x
_atom_site_fract_y
_atom_site_fract_z
     1  I          0.50000000       0.33043400       0.00000000
     2  I          0.00000000       0.83043400       0.00000000
     3  O          0.21732000       0.64395000       0.23882000
     4  O          0.78268000       0.64395000       0.76118000
     5  O          0.71732000       0.14395000       0.23882000
     6  O          0.28268000       0.14395000       0.76118000
     7  H          0.25830000       0.56180000       0.24950000
     8  H          0.74170000       0.56180000       0.75050000
     9  H          0.75830000       0.06180000       0.24950000
    10  H          0.24170000       0.06180000       0.75050000
    11  O          0.23144130       0.60745000       0.44522000
    12  O          0.76855870       0.60745000       0.55478000
    13  O          0.73144130       0.10745000       0.44522000
    14  O          0.26855870       0.10745000       0.55478000
    15  N          0.13585150       0.90265000       0.45912000
    16  N          0.86414850       0.90265000       0.54088000
    17  N          0.63585150       0.40265000       0.45912000
    18  N          0.36414850       0.40265000       0.54088000
    19  H          0.17966700       0.91380400       0.51478900
    20  H          0.82033300       0.91380400       0.48521100
    21  H          0.67966700       0.41380400       0.51478900
    22  H          0.32033300       0.41380400       0.48521100
    23  H          0.10966500       0.80787900       0.48894100
    24  H          0.89033500       0.80787900       0.51105900
    25  H          0.60966500       0.30787900       0.48894100
    26  H          0.39033500       0.30787900       0.51105900
    27  C          0.20255180       0.68465000       0.34383000
    28  C          0.79744820       0.68465000       0.65617000
    29  C          0.70255180       0.18465000       0.34383000
    30  C          0.29744820       0.18465000       0.65617000
    31  C          0.14418150       0.84039000       0.33342000
    32  C          0.85581850       0.84039000       0.66658000
    33  C          0.64418150       0.34039000       0.33342000
    34  C          0.35581850       0.34039000       0.66658000
    35  H          0.09785500       0.77954600       0.28421200
    36  H          0.90214500       0.77954600       0.71578800
    37  H          0.59785500       0.27954600       0.28421200
    38  H          0.40214500       0.27954600       0.71578800
    39  C          0.15561190       0.04265000       0.27303000
    40  C          0.84438810       0.04265000       0.72697000
    41  C          0.65561190       0.54265000       0.27303000
    42  C          0.34438810       0.54265000       0.72697000
    43  H          0.14383600       0.03151300       0.17978900
    44  H          0.85616400       0.03151300       0.82021100
    45  H          0.64383600       0.53151300       0.17978900
    46  H          0.35616400       0.53151300       0.82021100
    47  H          0.20573600       0.09096600       0.30421100
    48  H          0.79426400       0.09096600       0.69578900
    49  H          0.70573600       0.59096600       0.30421100
    50  H          0.29426400       0.59096600       0.69578900
    51  C          0.10322000       0.18346000       0.31574000
    52  C          0.89678000       0.18346000       0.68426000
    53  C          0.60322000       0.68346000       0.31574000
    54  C          0.39678000       0.68346000       0.68426000
    55  H          0.12105200       0.32585000       0.32312800
    56  H          0.87894800       0.32585000       0.67687200
    57  H          0.62105200       0.82585000       0.32312800
    58  H          0.37894800       0.82585000       0.67687200
    59  H          0.05544400       0.17988800       0.25462800
    60  H          0.94455600       0.17988800       0.74537200
    61  H          0.55544400       0.67988800       0.25462800
    62  H          0.44455600       0.67988800       0.74537200
    63  C          0.09842000       0.10261100       0.44364000
    64  C          0.90158000       0.10261100       0.55636000
    65  C          0.59842000       0.60261100       0.44364000
    66  C          0.40158000       0.60261100       0.55636000
    67  H          0.12212800       0.19772100       0.51176700
    68  H          0.87787200       0.19772100       0.48823300
    69  H          0.62212800       0.69772100       0.51176700
    70  H          0.37787200       0.69772100       0.48823300
    71  H          0.04763800       0.08562500       0.44591900
    72  H          0.95236200       0.08562500       0.55408100
    73  H          0.54763800       0.58562500       0.44591900
    74  H          0.45236200       0.58562500       0.55408100
    75  I          0.00000000       0.57989300       0.50000000
    76  I          0.50000000       0.07989300       0.50000000
    77  O          0.30723170       0.37185000       0.26362000
    78  O          0.69276830       0.37185000       0.73638000
    79  O          0.80723170       0.87185000       0.26362000
    80  O          0.19276830       0.87185000       0.73638000
    81  O          0.27941130       0.36465000       0.05462000
    82  O          0.72058870       0.36465000       0.94538000
    83  O          0.77941130       0.86465000       0.05462000
    84  O          0.22058870       0.86465000       0.94538000
    85  N          0.35615150       0.03065000       0.04253000
    86  N          0.64384850       0.03065000       0.95747000
    87  N          0.85615150       0.53065000       0.04253000
    88  N          0.14384850       0.53065000       0.95747000
    89  H          0.37935500       0.12760400       0.00819000
    90  H          0.62064500       0.12760400      -0.00819000
    91  H          0.87935500       0.62760400       0.00819000
    92  H          0.12064500       0.62760400      -0.00819000
    93  H          0.31089100       0.01800400      -0.00814900
    94  H          0.68910900       0.01800400       0.00814900
    95  H          0.81089100       0.51800400      -0.00814900
    96  H          0.18910900       0.51800400       0.00814900
    97  C          0.30866160       0.29486000       0.15793000
    98  C          0.69133840       0.29486000       0.84207000
    99  C          0.80866160       0.79486000       0.15793000
   100  C          0.19133840       0.79486000       0.84207000
   101  C          0.35172000       0.09891000       0.16943000
   102  C          0.64828000       0.09891000       0.83057000
   103  C          0.85172000       0.59891000       0.16943000
   104  C          0.14828000       0.59891000       0.83057000
   105  H          0.40071100       0.12214100       0.22363200
   106  H          0.59928900       0.12214100       0.77636800
   107  H          0.90071100       0.62214100       0.22363200
   108  H          0.09928900       0.62214100       0.77636800
   109  H          0.32848300      -0.00820500       0.20918800
   110  H          0.67151700      -0.00820500       0.79081200
   111  H          0.82848300       0.49179500       0.20918800
   112  H          0.17151700       0.49179500       0.79081200
   113  C          0.39442000       0.83248800       0.04534000
   114  C          0.60558000       0.83248800       0.95466000
   115  C          0.89442000       0.33248800       0.04534000
   116  C          0.10558000       0.33248800       0.95466000
   117  H          0.39743500       0.79740100       0.95972000
   118  H          0.60256500       0.79740100       0.04028000
   119  H          0.89743500       0.29740100       0.95972000
   120  H          0.10256500       0.29740100       0.04028000
   121  H          0.36797400       0.72536900       0.07710400
   122  H          0.63202600       0.72536900       0.92289600
   123  H          0.86797400       0.22536900       0.07710400
   124  H          0.13202600       0.22536900       0.92289600
   125  H          0.44291100       0.84416400       0.10081800
   126  H          0.55708900       0.84416400       0.89918200
   127  H          0.94291100       0.34416400       0.10081800
   128  H          0.05708900       0.34416400       0.89918200
