data_WITQID
_symmetry_space_group_name_H-M    'P1'
_symmetry_Int_Tables_number       1
loop_
_symmetry_equiv_pos_site_id
_symmetry_equiv_pos_as_xyz
1 x,y,z
_cell_length_a                   18.8392
_cell_length_b                   6.26698
_cell_length_c                   11.016014
_cell_angle_alpha                90.0
_cell_angle_beta                 106.1444
_cell_angle_gamma                90.0
loop_
_atom_site_label
_atom_site_type_symbol
_atom_site_fract_x
_atom_site_fract_y
_atom_site_fract_z
     1  Br         0.50000000       0.32099700       0.00000000
     2  Br         0.00000000       0.82099700       0.00000000
     3  O          0.21462000       0.64337000       0.24173000
     4  O          0.78538000       0.64337000       0.75827000
     5  O          0.71462000       0.14337000       0.24173000
     6  O          0.28538000       0.14337000       0.75827000
     7  H          0.24740000       0.54911000       0.24860000
     8  H          0.75260000       0.54911000       0.75140000
     9  H          0.74740000       0.04911000       0.24860000
    10  H          0.25260000       0.04911000       0.75140000
    11  O          0.22587150       0.58157000       0.44422000
    12  O          0.77412850       0.58157000       0.55578000
    13  O          0.72587150       0.08157000       0.44422000
    14  O          0.27412850       0.08157000       0.55578000
    15  N          0.13053170       0.89316000       0.46113000
    16  N          0.86946830       0.89316000       0.53887000
    17  N          0.63053170       0.39316000       0.46113000
    18  N          0.36946830       0.39316000       0.53887000
    19  H          0.10079500       0.79844800       0.48619400
    20  H          0.89920500       0.79844800       0.51380600
    21  H          0.60079500       0.29844800       0.48619400
    22  H          0.39920500       0.29844800       0.51380600
    23  H          0.17569000       0.89119600       0.51892300
    24  H          0.82431000       0.89119600       0.48107700
    25  H          0.67569000       0.39119600       0.51892300
    26  H          0.32431000       0.39119600       0.48107700
    27  C          0.19742000       0.67267000       0.34514000
    28  C          0.80258000       0.67267000       0.65486000
    29  C          0.69742000       0.17267000       0.34514000
    30  C          0.30258000       0.17267000       0.65486000
    31  C          0.13782000       0.83171100       0.33523000
    32  C          0.86218000       0.83171100       0.66477000
    33  C          0.63782000       0.33171100       0.33523000
    34  C          0.36218000       0.33171100       0.66477000
    35  H          0.09020200       0.76420900       0.28704000
    36  H          0.90979800       0.76420900       0.71296000
    37  H          0.59020200       0.26420900       0.28704000
    38  H          0.40979800       0.26420900       0.71296000
    39  C          0.14463000       0.03768000       0.27334000
    40  C          0.85537000       0.03768000       0.72666000
    41  C          0.64463000       0.53768000       0.27334000
    42  C          0.35537000       0.53768000       0.72666000
    43  H          0.12997100       0.02399500       0.18013900
    44  H          0.87002900       0.02399500       0.81986100
    45  H          0.62997100       0.52399500       0.18013900
    46  H          0.37002900       0.52399500       0.81986100
    47  H          0.19544900       0.09505300       0.30242300
    48  H          0.80455100       0.09505300       0.69757700
    49  H          0.69544900       0.59505300       0.30242300
    50  H          0.30455100       0.59505300       0.69757700
    51  C          0.08993000       0.17569000       0.31855000
    52  C          0.91007000       0.17569000       0.68145000
    53  C          0.58993000       0.67569000       0.31855000
    54  C          0.41007000       0.67569000       0.68145000
    55  H          0.10158400       0.32882700       0.31375100
    56  H          0.89841600       0.32882700       0.68624900
    57  H          0.60158400       0.82882700       0.31375100
    58  H          0.39841600       0.82882700       0.68624900
    59  H          0.03874800       0.14986300       0.26593100
    60  H          0.96125200       0.14986300       0.73406900
    61  H          0.53874800       0.64986300       0.26593100
    62  H          0.46125200       0.64986300       0.73406900
    63  C          0.09843000       0.11011100       0.45355000
    64  C          0.90157000       0.11011100       0.54645000
    65  C          0.59843000       0.61011100       0.45355000
    66  C          0.40157000       0.61011100       0.54645000
    67  H          0.13191500       0.20851500       0.51316400
    68  H          0.86808500       0.20851500       0.48683600
    69  H          0.63191500       0.70851500       0.51316400
    70  H          0.36808500       0.70851500       0.48683600
    71  H          0.04997700       0.10760200       0.47222300
    72  H          0.95002300       0.10760200       0.52777700
    73  H          0.54997700       0.60760200       0.47222300
    74  H          0.45002300       0.60760200       0.52777700
    75  Br         0.00000000       0.58681600       0.50000000
    76  Br         0.50000000       0.08681600       0.50000000
    77  O          0.30602000       0.35918000       0.26443000
    78  O          0.69398000       0.35918000       0.73557000
    79  O          0.80602000       0.85918000       0.26443000
    80  O          0.19398000       0.85918000       0.73557000
    81  O          0.28198160       0.37515000       0.05862000
    82  O          0.71801840       0.37515000       0.94138000
    83  O          0.78198160       0.87515000       0.05862000
    84  O          0.21801840       0.87515000       0.94138000
    85  N          0.36221170       0.03486000       0.03983000
    86  N          0.63778830       0.03486000       0.96017000
    87  N          0.86221170       0.53486000       0.03983000
    88  N          0.13778830       0.53486000       0.96017000
    89  H          0.38931000       0.13820800       0.01553400
    90  H          0.61069000       0.13820800       0.98446600
    91  H          0.88931000       0.63820800       0.01553400
    92  H          0.11069000       0.63820800       0.98446600
    93  H          0.31653000       0.03420200       0.98354700
    94  H          0.68347000       0.03420200       0.01645300
    95  H          0.81653000       0.53420200       0.98354700
    96  H          0.18347000       0.53420200       0.01645300
    97  C          0.31002000       0.29348000       0.15853000
    98  C          0.68998000       0.29348000       0.84147000
    99  C          0.81002000       0.79348000       0.15853000
   100  C          0.18998000       0.79348000       0.84147000
   101  C          0.35482000       0.08821100       0.16584000
   102  C          0.64518000       0.08821100       0.83416000
   103  C          0.85482000       0.58821100       0.16584000
   104  C          0.14518000       0.58821100       0.83416000
   105  H          0.40437600       0.10730500       0.22574100
   106  H          0.59562400       0.10730500       0.77425900
   107  H          0.90437600       0.60730500       0.22574100
   108  H          0.09562400       0.60730500       0.77425900
   109  H          0.32968200       0.97005000       0.19698100
   110  H          0.67031800       0.97005000       0.80301900
   111  H          0.82968200       0.47005000       0.19698100
   112  H          0.17031800       0.47005000       0.80301900
   113  C          0.39772000       0.82578800       0.03505000
   114  C          0.60228000       0.82578800       0.96495000
   115  C          0.89772000       0.32578800       0.03505000
   116  C          0.10228000       0.32578800       0.96495000
   117  H          0.40329600       0.80299500       0.95009000
   118  H          0.59670400       0.80299500       0.04991000
   119  H          0.90329600       0.30299500       0.95009000
   120  H          0.09670400       0.30299500       0.04991000
   121  H          0.36695700       0.71229500       0.05478900
   122  H          0.63304300       0.71229500       0.94521100
   123  H          0.86695700       0.21229500       0.05478900
   124  H          0.13304300       0.21229500       0.94521100
   125  H          0.44649500       0.82367600       0.09684600
   126  H          0.55350500       0.82367600       0.90315400
   127  H          0.94649500       0.32367600       0.09684600
   128  H          0.05350500       0.32367600       0.90315400
