data_WITRUQ
_symmetry_space_group_name_H-M    'P1'
_symmetry_Int_Tables_number       1
loop_
_symmetry_equiv_pos_site_id
_symmetry_equiv_pos_as_xyz
1 x,y,z
_cell_length_a                   9.114512
_cell_length_b                   6.80319
_cell_length_c                   20.0403
_cell_angle_alpha                90.0
_cell_angle_beta                 100.6364
_cell_angle_gamma                90.0
loop_
_atom_site_label
_atom_site_type_symbol
_atom_site_fract_x
_atom_site_fract_y
_atom_site_fract_z
     1  Br         0.50000200       0.46669200       0.25000200
     2  Br         0.50000200       0.53330800       0.75000200
     3  Br         0.00000200       0.96669200       0.25000200
     4  Br         0.00000200       0.03330800       0.75000200
     5  N          0.67207160       0.20682000       0.38513700
     6  N          0.67207160       0.79318000       0.88513700
     7  N          0.17207160       0.70682000       0.38513700
     8  N          0.17207160       0.29318000       0.88513700
     9  H          0.62055400       0.31019700       0.36346600
    10  H          0.62055400       0.68980300       0.86346600
    11  H          0.12055400       0.81019700       0.36346600
    12  H          0.12055400       0.18980300       0.86346600
    13  H          0.76878100       0.24259700       0.40003300
    14  H          0.76878100       0.75740300       0.90003300
    15  H          0.26878100       0.74259700       0.40003300
    16  H          0.26878100       0.25740300       0.90003300
    17  H          0.63034600       0.17061200       0.42115800
    18  H          0.63034600       0.82938800       0.92115800
    19  H          0.13034600       0.67061200       0.42115800
    20  H          0.13034600       0.32938800       0.92115800
    21  O          0.63948160       0.60722000       0.44475700
    22  O          0.63948160       0.39278000       0.94475700
    23  O          0.13948160       0.10722000       0.44475700
    24  O          0.13948160       0.89278000       0.94475700
    25  H          0.56830000       0.56630000       0.46601500
    26  H          0.56830000       0.43370000       0.96601500
    27  H          0.06830000       0.06630000       0.46601500
    28  H          0.06830000       0.93370000       0.96601500
    29  O          0.47079140       0.83558190       0.40427700
    30  O          0.47079140       0.16441810       0.90427700
    31  O          0.97079140       0.33558190       0.40427700
    32  O          0.97079140       0.66441810       0.90427700
    33  C          0.59342000       0.76393000       0.40876100
    34  C          0.59342000       0.23607000       0.90876100
    35  C          0.09342000       0.26393000       0.40876100
    36  C          0.09342000       0.73607000       0.90876100
    37  C          0.71157190       0.84653000       0.37274900
    38  C          0.71157190       0.15347000       0.87274900
    39  C          0.21157190       0.34653000       0.37274900
    40  C          0.21157190       0.65347000       0.87274900
    41  H          0.80462400       0.86705700       0.40627600
    42  H          0.80462400       0.13294300       0.90627600
    43  H          0.30462400       0.36705700       0.40627600
    44  H          0.30462400       0.63294300       0.90627600
    45  H          0.73298200       0.74929900       0.33905000
    46  H          0.73298200       0.25070100       0.83905000
    47  H          0.23298200       0.24929900       0.33905000
    48  H          0.23298200       0.75070100       0.83905000
    49  C          0.66643000       0.03793000       0.33707100
    50  C          0.66643000       0.96207000       0.83707100
    51  C          0.16643000       0.53793000       0.33707100
    52  C          0.16643000       0.46207000       0.83707100
    53  H          0.73362400       0.06535500       0.30462100
    54  H          0.73362400       0.93464500       0.80462100
    55  H          0.23362400       0.56535500       0.30462100
    56  H          0.23362400       0.43464500       0.80462100
    57  H          0.56364400       0.02533500       0.31077300
    58  H          0.56364400       0.97466500       0.81077300
    59  H          0.06364400       0.52533500       0.31077300
    60  H          0.06364400       0.47466500       0.81077300
    61  O          0.46012000       0.47232000       0.51393900
    62  O          0.46012000       0.52768000       0.01393900
    63  O          0.96012000       0.97232000       0.51393900
    64  O          0.96012000       0.02768000       0.01393900
    65  O          0.56922140       0.18072000       0.51145600
    66  O          0.56922140       0.81928000       0.01145600
    67  O          0.06922140       0.68072000       0.51145600
    68  O          0.06922140       0.31928000       0.01145600
    69  C          0.48524180       0.29672000       0.53258800
    70  C          0.48524180       0.70328000       0.03258800
    71  C         -0.01475820       0.79672000       0.53258800
    72  C         -0.01475820       0.20328000       0.03258800
    73  C          0.39422000       0.23833000       0.58666100
    74  C          0.39422000       0.76167000       0.08666100
    75  C          0.89422000       0.73833000       0.58666100
    76  C          0.89422000       0.26167000       0.08666100
    77  H          0.40462400       0.34412700       0.62113000
    78  H          0.40462400       0.65587300       0.12113000
    79  H          0.90462400       0.84412700       0.62113000
    80  H          0.90462400       0.15587300       0.12113000
    81  H          0.28765900       0.23289200       0.56471600
    82  H          0.28765900       0.76710800       0.06471600
    83  H          0.78765900       0.73289200       0.56471600
    84  H          0.78765900       0.26710800       0.06471600
    85  N          0.43366150       0.04681190       0.62287700
    86  N          0.43366150       0.95318810       0.12287700
    87  N          0.93366150       0.54681190       0.62287700
    88  N          0.93366150       0.45318810       0.12287700
    89  C          0.40762000       0.87457000       0.57560900
    90  C          0.40762000       0.12543000       0.07560900
    91  C          0.90762000       0.37457000       0.57560900
    92  C          0.90762000       0.62543000       0.07560900
    93  H          0.30289300       0.87290300       0.55264800
    94  H          0.30289300       0.12709700       0.05264800
    95  H          0.80289300       0.37290300       0.55264800
    96  H          0.80289300       0.62709700       0.05264800
    97  H          0.43064600       0.75277300       0.60149000
    98  H          0.43064600       0.24722700       0.10149000
    99  H          0.93064600       0.25277300       0.60149000
   100  H          0.93064600       0.74722700       0.10149000
   101  H          0.47219400       0.88556300       0.54173000
   102  H          0.47219400       0.11443700       0.04173000
   103  H          0.97219400       0.38556300       0.54173000
   104  H          0.97219400       0.61443700       0.04173000
   105  C          0.59272000       0.04773000       0.65924900
   106  C          0.59272000       0.95227000       0.15924900
   107  C          0.09272000       0.54773000       0.65924900
   108  C          0.09272000       0.45227000       0.15924900
   109  H          0.65907200       0.05727300       0.62606700
   110  H          0.65907200       0.94272700       0.12606700
   111  H          0.15907200       0.55727300       0.62606700
   112  H          0.15907200       0.44272700       0.12606700
   113  H          0.61382000       0.92591600       0.68535200
   114  H          0.61382000       0.07408400       0.18535200
   115  H          0.11382000       0.42591600       0.68535200
   116  H          0.11382000       0.57408400       0.18535200
   117  H          0.60932700       0.16059200       0.69010100
   118  H          0.60932700       0.83940800       0.19010100
   119  H          0.10932700       0.66059200       0.69010100
   120  H          0.10932700       0.33940800       0.19010100
   121  C          0.33413000       0.02753000       0.67447120
   122  C          0.33413000       0.97247000       0.17447120
   123  C          0.83413000       0.52753000       0.67447120
   124  C          0.83413000       0.47247000       0.17447120
   125  H          0.22944800       0.02852800       0.65139200
   126  H          0.22944800       0.97147200       0.15139200
   127  H          0.72944800       0.52852800       0.65139200
   128  H          0.72944800       0.47147200       0.15139200
   129  H          0.35200800       0.13776100       0.70641000
   130  H          0.35200800       0.86223900       0.20641000
   131  H          0.85200800       0.63776100       0.70641000
   132  H          0.85200800       0.36223900       0.20641000
   133  H          0.35576900       0.90360100       0.69928200
   134  H          0.35576900       0.09639900       0.19928200
   135  H          0.85576900       0.40360100       0.69928200
   136  H          0.85576900       0.59639900       0.19928200
