data_WITRAW
_symmetry_space_group_name_H-M    'P1'
_symmetry_Int_Tables_number       1
loop_
_symmetry_equiv_pos_site_id
_symmetry_equiv_pos_as_xyz
1 x,y,z
_cell_length_a                   19.132317
_cell_length_b                   5.54175
_cell_length_c                   11.836211
_cell_angle_alpha                90.0
_cell_angle_beta                 90.0
_cell_angle_gamma                90.0
loop_
_atom_site_label
_atom_site_type_symbol
_atom_site_fract_x
_atom_site_fract_y
_atom_site_fract_z
     1  I          0.37236200       0.35778200       0.97060200
     2  I          0.62763800       0.64221800       0.47060200
     3  I          0.87236200       0.14221800       0.97060200
     4  I          0.12763800       0.85778200       0.47060200
     5  O          0.41755800       0.68193000       0.38964120
     6  O          0.58244200       0.31807000       0.88964120
     7  O          0.91755800       0.81807000       0.38964120
     8  O          0.08244200       0.18193000       0.88964120
     9  H          0.39641400       0.76630000       0.43520000
    10  H          0.60358600       0.23370000       0.93520000
    11  H          0.89641400       0.73370000       0.43520000
    12  H          0.10358600       0.26630000       0.93520000
    13  O          0.45579800       0.03893000       0.32732110
    14  O          0.54420200       0.96107000       0.82732110
    15  O          0.95579800       0.46107000       0.32732110
    16  O          0.04420200       0.53893000       0.82732110
    17  N          0.53101800       0.69703000       0.03060130
    18  N          0.46898200       0.30297000       0.53060130
    19  N          0.03101800       0.80297000       0.03060130
    20  N          0.96898200       0.19703000       0.53060130
    21  H          0.56981000       0.62055500       0.05698500
    22  H          0.43019000       0.37944500       0.55698500
    23  H          0.06981000       0.87944500       0.05698500
    24  H          0.93019000       0.12055500       0.55698500
    25  H          0.54305400       0.79575900       0.97235000
    26  H          0.45694600       0.20424100       0.47235000
    27  H          0.04305400       0.70424100       0.97235000
    28  H          0.95694600       0.29575900       0.47235000
    29  H          0.49955900       0.58554500       0.00600400
    30  H          0.50044100       0.41445500       0.50600400
    31  H         -0.00044100       0.91445500       0.00600400
    32  H          0.00044100       0.08554500       0.50600400
    33  C          0.45076900       0.82013000       0.31783140
    34  C          0.54923100       0.17987000       0.81783140
    35  C          0.95076900       0.67987000       0.31783140
    36  C          0.04923100       0.32013000       0.81783140
    37  C          0.48195110       0.68233000       0.22126150
    38  C          0.51804890       0.31767000       0.72126150
    39  C          0.98195110       0.81767000       0.22126150
    40  C          0.01804890       0.18233000       0.72126150
    41  H          0.44855000       0.55655500       0.19640800
    42  H          0.55145000       0.44344500       0.69640800
    43  H          0.94855000       0.94344500       0.19640800
    44  H          0.05145000       0.05655500       0.69640800
    45  H          0.52502700       0.60031100       0.24725600
    46  H          0.47497300       0.39968900       0.74725600
    47  H          0.02502700       0.89968900       0.24725600
    48  H          0.97497300       0.10031100       0.74725600
    49  C          0.49931100       0.84253000       0.12282160
    50  C          0.50068900       0.15747000       0.62282160
    51  C         -0.00068900       0.65747000       0.12282160
    52  C          0.00068900       0.34253000       0.62282160
    53  H          0.45628700       0.92210400       0.09504800
    54  H          0.54371300       0.07789600       0.59504800
    55  H          0.95628700       0.57789600       0.09504800
    56  H          0.04371300       0.42210400       0.59504800
    57  H          0.53246300       0.96951400       0.14706100
    58  H          0.46753700       0.03048600       0.64706100
    59  H          0.03246300       0.53048600       0.14706100
    60  H          0.96753700       0.46951400       0.64706100
    61  O          0.35425800       0.90143000       0.54299130
    62  O          0.64574200       0.09857000       0.04299130
    63  O          0.85425800       0.59857000       0.54299130
    64  O          0.14574200       0.40143000       0.04299130
    65  O          0.35728800       0.54943000       0.63651120
    66  O          0.64271200       0.45057000       0.13651120
    67  O          0.85728800       0.95057000       0.63651120
    68  O          0.14271200       0.04943000       0.13651120
    69  N          0.26497800       0.70193000       0.79640130
    70  N          0.73502200       0.29807000       0.29640130
    71  N          0.76497800       0.79807000       0.79640130
    72  N          0.23502200       0.20193000       0.29640130
    73  H          0.30664300       0.61240800       0.82545900
    74  H          0.69335700       0.38759200       0.32545900
    75  H          0.80664300       0.88759200       0.82545900
    76  H          0.19335700       0.11240800       0.32545900
    77  C          0.33815900       0.76063000       0.62292150
    78  C          0.66184100       0.23937000       0.12292150
    79  C          0.83815900       0.73937000       0.62292150
    80  C          0.16184100       0.26063000       0.12292150
    81  C          0.28988100       0.87623000       0.70984160
    82  C          0.71011900       0.12377000       0.20984160
    83  C          0.78988100       0.62377000       0.70984160
    84  C          0.21011900       0.37623000       0.20984160
    85  H          0.31504300       0.00937700       0.74795200
    86  H          0.68495700      -0.00937700       0.24795200
    87  H          0.81504300       0.49062300       0.74795200
    88  H          0.18495700       0.50937700       0.24795200
    89  H          0.24899700       0.94634600       0.67047400
    90  H          0.75100300       0.05365400       0.17047400
    91  H          0.74899700       0.55365400       0.67047400
    92  H          0.25100300       0.44634600       0.17047400
    93  C          0.21560110       0.52094000       0.74772000
    94  C          0.78439890       0.47906000       0.24772000
    95  C          0.71560110      -0.02094000       0.74772000
    96  C          0.28439890       0.02094000       0.24772000
    97  H          0.17327900       0.60300200       0.72134400
    98  H          0.82672100       0.39699800       0.22134400
    99  H          0.67327900       0.89699800       0.72134400
   100  H          0.32672100       0.10300200       0.22134400
   101  H          0.20313200       0.40239500       0.80578700
   102  H          0.79686800       0.59760500       0.30578700
   103  H          0.70313200       0.09760500       0.80578700
   104  H          0.29686800       0.90239500       0.30578700
   105  H          0.23801400       0.43837100       0.68405700
   106  H          0.76198600       0.56162900       0.18405700
   107  H          0.73801400       0.06162900       0.68405700
   108  H          0.26198600       0.93837100       0.18405700
   109  C          0.23203120       0.82844000       0.89402190
   110  C          0.76796880       0.17156000       0.39402190
   111  C          0.73203120       0.67156000       0.89402190
   112  C          0.26796880       0.32844000       0.39402190
   113  H          0.26537600       0.94361800       0.92630800
   114  H          0.73462400       0.05638200       0.42630800
   115  H          0.76537600       0.55638200       0.92630800
   116  H          0.23462400       0.44361800       0.42630800
   117  H          0.21878700       0.70995600       0.95163000
   118  H          0.78121300       0.29004400       0.45163000
   119  H          0.71878700       0.79004400       0.95163000
   120  H          0.28121300       0.20995600       0.45163000
   121  H          0.19028800       0.91492000       0.86826500
   122  H          0.80971200       0.08508000       0.36826500
   123  H          0.69028800       0.58508000       0.86826500
   124  H          0.30971200       0.41492000       0.36826500
