data_WITREA
_symmetry_space_group_name_H-M    'P1'
_symmetry_Int_Tables_number       1
loop_
_symmetry_equiv_pos_site_id
_symmetry_equiv_pos_as_xyz
1 x,y,z
_cell_length_a                   20.802716
_cell_length_b                   5.17334
_cell_length_c                   11.83881
_cell_angle_alpha                90.0
_cell_angle_beta                 90.0
_cell_angle_gamma                90.0
loop_
_atom_site_label
_atom_site_type_symbol
_atom_site_fract_x
_atom_site_fract_y
_atom_site_fract_z
     1  S          0.37484200       0.54978600       0.90935400
     2  S          0.62515800       0.45021400       0.40935400
     3  S          0.87484200       0.95021400       0.90935400
     4  S          0.12515800       0.04978600       0.40935400
     5  O          0.32408700       0.41723000       0.84802150
     6  O          0.67591300       0.58277000       0.34802150
     7  O          0.82408700       0.08277000       0.84802150
     8  O          0.17591300       0.91723000       0.34802150
     9  O          0.43283500       0.39172000       0.91494130
    10  O          0.56716500       0.60828000       0.41494130
    11  O          0.93283500       0.10828000       0.91494130
    12  O          0.06716500       0.89172000       0.41494130
    13  O          0.35474700       0.64783000       0.01799120
    14  O          0.64525300       0.35217000       0.51799120
    15  O          0.85474700       0.85217000       0.01799120
    16  O          0.14525300       0.14783000       0.51799120
    17  N          0.39181800       0.80833000       0.83231130
    18  N          0.60818200       0.19167000       0.33231130
    19  N          0.89181800       0.69167000       0.83231130
    20  N          0.10818200       0.30833000       0.33231130
    21  H          0.42411300       0.77860000       0.80120000
    22  H          0.57588700       0.22140000       0.30120000
    23  H          0.92411300       0.72140000       0.80120000
    24  H          0.07588700       0.27860000       0.30120000
    25  H          0.38851300       0.94650000       0.86830000
    26  H          0.61148700       0.05350000       0.36830000
    27  H          0.88851300       0.55350000       0.86830000
    28  H          0.11148700       0.44650000       0.36830000
    29  O          0.41715600       0.69002000       0.31758100
    30  O          0.58284400       0.30998000       0.81758100
    31  O          0.91715600       0.80998000       0.31758100
    32  O          0.08284400       0.19002000       0.81758100
    33  H          0.39531100       0.79930000       0.37020000
    34  H          0.60468900       0.20070000       0.87020000
    35  H          0.89531100       0.70070000       0.37020000
    36  H          0.10468900       0.29930000       0.87020000
    37  O          0.46520600       0.05952000       0.27078110
    38  O          0.53479400       0.94048000       0.77078110
    39  O          0.96520600       0.44048000       0.27078110
    40  O          0.03479400       0.55952000       0.77078110
    41  N          0.54326600       0.67993000       0.98216900
    42  N          0.45673400       0.32007000       0.48216900
    43  N          0.04326600       0.82007000       0.98216900
    44  N          0.95673400       0.17993000       0.48216900
    45  H          0.57916700       0.60065500       0.00915100
    46  H          0.42083300       0.39934500       0.50915100
    47  H          0.07916700       0.89934500       0.00915100
    48  H          0.92083300       0.10065500       0.50915100
    49  H          0.55382000       0.77919000       0.92148400
    50  H          0.44618000       0.22081000       0.42148400
    51  H          0.05382000       0.72081000       0.92148400
    52  H          0.94618000       0.27919000       0.42148400
    53  H          0.51405500       0.55831600       0.96095100
    54  H          0.48594500       0.44168400       0.46095100
    55  H          0.01405500       0.94168400       0.96095100
    56  H          0.98594500       0.05831600       0.46095100
    57  C          0.45620700       0.82893000       0.25664110
    58  C          0.54379300       0.17107000       0.75664110
    59  C          0.95620700       0.67107000       0.25664110
    60  C          0.04379300       0.32893000       0.75664110
    61  C          0.49041800       0.67803000       0.16648120
    62  C          0.50958200       0.32197000       0.66648120
    63  C          0.99041800       0.82197000       0.16648120
    64  C          0.00958200       0.17803000       0.66648120
    65  H          0.46057900       0.54759900       0.13487000
    66  H          0.53942100       0.45240100       0.63487000
    67  H          0.96057900       0.95240100       0.13487000
    68  H          0.03942100       0.04759900       0.63487000
    69  H          0.52703300       0.58457600       0.20092100
    70  H          0.47296700       0.41542400       0.70092100
    71  H          0.02703300       0.91542400       0.20092100
    72  H          0.97296700       0.08457600       0.70092100
    73  C          0.51505700       0.84613000       0.07196120
    74  C          0.48494300       0.15387000       0.57196120
    75  C          0.01505700       0.65387000       0.07196120
    76  C          0.98494300       0.34613000       0.57196120
    77  H          0.47935700       0.94987100       0.04031600
    78  H          0.52064300       0.05012900       0.54031600
    79  H          0.97935700       0.55012900       0.04031600
    80  H          0.02064300       0.44987100       0.54031600
    81  H          0.54812900       0.96625100       0.10123900
    82  H          0.45187100       0.03374900       0.60123900
    83  H          0.04812900       0.53374900       0.10123900
    84  H          0.95187100       0.46625100       0.60123900
    85  O          0.35204600       0.92963000       0.45955110
    86  O          0.64795400       0.07037000       0.95955110
    87  O          0.85204600       0.57037000       0.45955110
    88  O          0.14795400       0.42963000       0.95955110
    89  O          0.34964700       0.57703000       0.56874120
    90  O          0.65035300       0.42297000       0.06874120
    91  O          0.84964700       0.92297000       0.56874120
    92  O          0.15035300       0.07703000       0.06874120
    93  N          0.25633600       0.76292000       0.70445100
    94  N          0.74366400       0.23708000       0.20445100
    95  N          0.75633600       0.73708000       0.70445100
    96  N          0.24366400       0.26292000       0.20445100
    97  H          0.29138800       0.65128300       0.73547000
    98  H          0.70861200       0.34871700       0.23547000
    99  H          0.79138800       0.84871700       0.73547000
   100  H          0.20861200       0.15128300       0.23547000
   101  C          0.33276600       0.79863000       0.54335120
   102  C          0.66723400       0.20137000       0.04335120
   103  C          0.83276600       0.70137000       0.54335120
   104  C          0.16723400       0.29863000       0.04335120
   105  C          0.28549700       0.93943000       0.61956130
   106  C          0.71450300       0.06057000       0.11956130
   107  C          0.78549700       0.56057000       0.61956130
   108  C          0.21450300       0.43943000       0.11956130
   109  H          0.30804000       0.08157900       0.65909600
   110  H          0.69196000       0.91842100       0.15909600
   111  H          0.80804000       0.41842100       0.65909600
   112  H          0.19196000       0.58157900       0.15909600
   113  H          0.25101300       0.01657500       0.57281300
   114  H          0.74898700      -0.01657500       0.07281300
   115  H          0.75101300       0.48342500       0.57281300
   116  H          0.24898700       0.51657500       0.07281300
   117  C          0.20732900       0.59023000       0.65214160
   118  C          0.79267100       0.40977000       0.15214160
   119  C          0.70732900       0.90977000       0.65214160
   120  C          0.29267100       0.09023000       0.15214160
   121  H          0.17072900       0.69376700       0.62626900
   122  H          0.82927100       0.30623300       0.12626900
   123  H          0.67072900       0.80623300       0.62626900
   124  H          0.32927100       0.19376700       0.12626900
   125  H          0.19258500       0.46372300       0.70807900
   126  H          0.80741500       0.53627700       0.20807900
   127  H          0.69258500       0.03627700       0.70807900
   128  H          0.30741500       0.96372300       0.20807900
   129  H          0.22641400       0.49945400       0.58768100
   130  H          0.77358600       0.50054600       0.08768100
   131  H          0.72641400       0.00054600       0.58768100
   132  H          0.27358600      -0.00054600       0.08768100
   133  C          0.22728900       0.90804000       0.80072150
   134  C          0.77271100       0.09196000       0.30072150
   135  C          0.72728900       0.59196000       0.80072150
   136  C          0.27271100       0.40804000       0.30072150
   137  H          0.25959200       0.02307400       0.83384900
   138  H          0.74040800      -0.02307400       0.33384900
   139  H          0.75959200       0.47692600       0.83384900
   140  H          0.24040800       0.52307400       0.33384900
   141  H          0.21230000       0.78549800       0.85813400
   142  H          0.78770000       0.21450200       0.35813400
   143  H          0.71230000       0.71450200       0.85813400
   144  H          0.28770000       0.28549800       0.35813400
   145  H          0.19085600       0.01055400       0.77339200
   146  H          0.80914400      -0.01055400       0.27339200
   147  H          0.69085600       0.48944600       0.77339200
   148  H          0.30914400       0.51055400       0.27339200
