data_WITSIF
_symmetry_space_group_name_H-M    'P1'
_symmetry_Int_Tables_number       1
loop_
_symmetry_equiv_pos_site_id
_symmetry_equiv_pos_as_xyz
1 x,y,z
_cell_length_a                   9.214612
_cell_length_b                   6.96079
_cell_length_c                   20.6253
_cell_angle_alpha                90.0
_cell_angle_beta                 101.0114
_cell_angle_gamma                90.0
loop_
_atom_site_label
_atom_site_type_symbol
_atom_site_fract_x
_atom_site_fract_y
_atom_site_fract_z
     1  I          0.50000200       0.47076200       0.25000200
     2  I          0.50000200       0.52923800       0.75000200
     3  I          0.00000200       0.97076200       0.25000200
     4  I          0.00000200       0.02923800       0.75000200
     5  O          0.64485180       0.59712000       0.44524800
     6  O          0.64485180       0.40288000       0.94524800
     7  O          0.14485180       0.09712000       0.44524800
     8  O          0.14485180       0.90288000       0.94524800
     9  H          0.57530000       0.55230000       0.46611700
    10  H          0.57530000       0.44770000       0.96611700
    11  H          0.07530000       0.05230000       0.46611700
    12  H          0.07530000       0.94770000       0.96611700
    13  O          0.47412160       0.82062000       0.40939700
    14  O          0.47412160       0.17938000       0.90939700
    15  O          0.97412160       0.32062000       0.40939700
    16  O          0.97412160       0.67938000       0.90939700
    17  C          0.59593000       0.75405000       0.41204130
    18  C          0.59593000       0.24595000       0.91204130
    19  C          0.09593000       0.25405000       0.41204130
    20  C          0.09593000       0.74595000       0.91204130
    21  C          0.71012000       0.84053000       0.37719100
    22  C          0.71012000       0.15947000       0.87719100
    23  C          0.21012000       0.34053000       0.37719100
    24  C          0.21012000       0.65947000       0.87719100
    25  H          0.73268600       0.74760000       0.34415900
    26  H          0.73268600       0.25240000       0.84415900
    27  H          0.23268600       0.24760000       0.34415900
    28  H          0.23268600       0.75240000       0.84415900
    29  H          0.80224200       0.86287900       0.40983300
    30  H          0.80224200       0.13712100       0.90983300
    31  H          0.30224200       0.36287900       0.40983300
    32  H          0.30224200       0.63712100       0.90983300
    33  C          0.66104000       0.02774000       0.34284180
    34  C          0.66104000       0.97226000       0.84284180
    35  C          0.16104000       0.52774000       0.34284180
    36  C          0.16104000       0.47226000       0.84284180
    37  H          0.72081000       0.05264000       0.30861800
    38  H          0.72081000       0.94736000       0.80861800
    39  H          0.22081000       0.55264000       0.30861800
    40  H          0.22081000       0.44736000       0.80861800
    41  H          0.55632600       0.01649100       0.32047300
    42  H          0.55632600      -0.01649100       0.82047300
    43  H          0.05632600       0.51649100       0.32047300
    44  H          0.05632600       0.48350900       0.82047300
    45  N          0.67682180       0.19362000       0.38984800
    46  N          0.67682180       0.80638000       0.88984800
    47  N          0.17682180       0.69362000       0.38984800
    48  N          0.17682180       0.30638000       0.88984800
    49  H          0.62744200       0.29699200       0.36949300
    50  H          0.62744200       0.70300800       0.86949300
    51  H          0.12744200       0.79699200       0.36949300
    52  H          0.12744200       0.20300800       0.86949300
    53  H          0.77422700       0.22334600       0.40274800
    54  H          0.77422700       0.77665400       0.90274800
    55  H          0.27422700       0.72334600       0.40274800
    56  H          0.27422700       0.27665400       0.90274800
    57  H          0.63837800       0.16132600       0.42585200
    58  H          0.63837800       0.83867400       0.92585200
    59  H          0.13837800       0.66132600       0.42585200
    60  H          0.13837800       0.33867400       0.92585200
    61  O          0.47132000       0.45712000       0.51315100
    62  O          0.47132000       0.54288000       0.01315100
    63  O          0.97132000       0.95712000       0.51315100
    64  O          0.97132000       0.04288000       0.01315100
    65  O          0.57966150       0.17132000       0.51214700
    66  O          0.57966150       0.82868000       0.01214700
    67  O          0.07966150       0.67132000       0.51214700
    68  O          0.07966150       0.32868000       0.01214700
    69  C          0.49472000       0.28493000       0.53130900
    70  C          0.49472000       0.71507000       0.03130900
    71  C         -0.00528000       0.78493000       0.53130900
    72  C         -0.00528000       0.21507000       0.03130900
    73  C          0.39993000       0.22685000       0.58152130
    74  C          0.39993000       0.77315000       0.08152130
    75  C          0.89993000       0.72685000       0.58152130
    76  C          0.89993000       0.27315000       0.08152130
    77  H          0.40730900       0.32995700       0.61502700
    78  H          0.40730900       0.67004300       0.11502700
    79  H          0.90730900       0.82995700       0.61502700
    80  H          0.90730900       0.17004300       0.11502700
    81  H          0.29553900       0.22160300       0.55824200
    82  H          0.29553900       0.77839700       0.05824200
    83  H          0.79553900       0.72160300       0.55824200
    84  H          0.79553900       0.27839700       0.05824200
    85  N          0.43573180       0.03932000       0.61725800
    86  N          0.43573180       0.96068000       0.11725800
    87  N          0.93573180       0.53932000       0.61725800
    88  N          0.93573180       0.46068000       0.11725800
    89  C          0.41342000       0.87067000       0.57092100
    90  C          0.41342000       0.12933000       0.07092100
    91  C          0.91342000       0.37067000       0.57092100
    92  C          0.91342000       0.62933000       0.07092100
    93  H          0.31059200       0.86812200       0.54719400
    94  H          0.31059200       0.13187800       0.04719400
    95  H          0.81059200       0.36812200       0.54719400
    96  H          0.81059200       0.63187800       0.04719400
    97  H          0.43553800       0.75152300       0.59619200
    98  H          0.43553800       0.24847700       0.09619200
    99  H          0.93553800       0.25152300       0.59619200
   100  H          0.93553800       0.74847700       0.09619200
   101  H          0.47958400       0.88236200       0.53914100
   102  H          0.47958400       0.11763800       0.03914100
   103  H          0.97958400       0.38236200       0.53914100
   104  H          0.97958400       0.61763800       0.03914100
   105  C          0.59122000       0.03923000       0.65583110
   106  C          0.59122000       0.96077000       0.15583110
   107  C          0.09122000       0.53923000       0.65583110
   108  C          0.09122000       0.46077000       0.15583110
   109  H          0.66054600       0.04750800       0.62533900
   110  H          0.66054600       0.95249200       0.12533900
   111  H          0.16054600       0.54750800       0.62533900
   112  H          0.16054600       0.45249200       0.12533900
   113  H          0.60923400       0.92032100       0.68155600
   114  H          0.60923400       0.07967900       0.18155600
   115  H          0.10923400       0.42032100       0.68155600
   116  H          0.10923400       0.57967900       0.18155600
   117  H          0.60542700       0.14978100       0.68578900
   118  H          0.60542700       0.85021900       0.18578900
   119  H          0.10542700       0.64978100       0.68578900
   120  H          0.10542700       0.35021900       0.18578900
   121  C          0.33145000       0.02104000       0.66492000
   122  C          0.33145000       0.97896000       0.16492000
   123  C          0.83145000       0.52104000       0.66492000
   124  C          0.83145000       0.47896000       0.16492000
   125  H          0.22923600       0.02038300       0.64037400
   126  H          0.22923600       0.97961700       0.14037400
   127  H          0.72923600       0.52038300       0.64037400
   128  H          0.72923600       0.47961700       0.14037400
   129  H          0.34557100       0.12990400       0.69559600
   130  H          0.34557100       0.87009600       0.19559600
   131  H          0.84557100       0.62990400       0.69559600
   132  H          0.84557100       0.37009600       0.19559600
   133  H          0.35150000       0.90088700       0.68978500
   134  H          0.35150000       0.09911300       0.18978500
   135  H          0.85150000       0.40088700       0.68978500
   136  H          0.85150000       0.59911300       0.18978500
