data_WITSAX01
_symmetry_space_group_name_H-M    'P1'
_symmetry_Int_Tables_number       1
loop_
_symmetry_equiv_pos_site_id
_symmetry_equiv_pos_as_xyz
1 x,y,z
_cell_length_a                   16.423214
_cell_length_b                   9.58228
_cell_length_c                   8.13547
_cell_angle_alpha                90.0
_cell_angle_beta                 90.0
_cell_angle_gamma                90.0
loop_
_atom_site_label
_atom_site_type_symbol
_atom_site_fract_x
_atom_site_fract_y
_atom_site_fract_z
     1  Cl         0.42516300       0.18566400       0.25000600
     2  Cl         0.57483700       0.81433600       0.75000600
     3  Cl         0.92516300       0.31433600       0.25000600
     4  Cl         0.07483700       0.68566400       0.75000600
     5  O          0.47702000       0.12963000       0.37344000
     6  O          0.52298000       0.87037000       0.87344000
     7  O          0.97702000       0.37037000       0.37344000
     8  O          0.02298000       0.62963000       0.87344000
     9  O          0.47062000       0.20544000       0.10294000
    10  O          0.52938000       0.79456000       0.60294000
    11  O          0.97062000       0.29456000       0.10294000
    12  O          0.02938000       0.70544000       0.60294000
    13  O          0.39461130       0.31885170       0.30173000
    14  O          0.60538870       0.68114830       0.80173000
    15  O          0.89461130       0.18114830       0.30173000
    16  O          0.10538870       0.81885170       0.80173000
    17  O          0.36063170       0.09353000       0.21856000
    18  O          0.63936830       0.90647000       0.71856000
    19  O          0.86063170       0.40647000       0.21856000
    20  O          0.13936830       0.59353000       0.71856000
    21  O          0.28484100       0.40304170       0.67802000
    22  O          0.71515900       0.59695830       0.17802000
    23  O          0.78484100       0.09695830       0.67802000
    24  O          0.21515900       0.90304170       0.17802000
    25  H          0.32151900       0.44530000       0.73730000
    26  H          0.67848100       0.55470000       0.23730000
    27  H          0.82151900       0.05470000       0.73730000
    28  H          0.17848100       0.94530000       0.23730000
    29  O          0.32404900       0.55469150       0.48263180
    30  O          0.67595100       0.44530850       0.98263180
    31  O          0.82404900       0.94530850       0.48263180
    32  O          0.17595100       0.05469150       0.98263180
    33  C          0.28209110       0.45873180       0.53222000
    34  C          0.71790890       0.54126820       0.03222000
    35  C          0.78209110       0.04126820       0.53222000
    36  C          0.21790890       0.95873180       0.03222000
    37  C          0.21963120       0.38642000       0.42533000
    38  C          0.78036880       0.61358000       0.92533000
    39  C          0.71963120       0.11358000       0.42533000
    40  C          0.28036880       0.88642000       0.92533000
    41  H          0.23568100       0.28771800       0.40968200
    42  H          0.76431900       0.71228200       0.90968200
    43  H          0.73568100       0.21228200       0.40968200
    44  H          0.26431900       0.78771800       0.90968200
    45  H          0.16612600       0.38783200       0.48130700
    46  H          0.83387400       0.61216800       0.98130700
    47  H          0.66612600       0.11216800       0.48130700
    48  H          0.33387400       0.88783200       0.98130700
    49  N          0.21211800       0.45460150       0.26332000
    50  N          0.78788200       0.54539850       0.76332000
    51  N          0.71211800       0.04539850       0.26332000
    52  N          0.28788200       0.95460150       0.76332000
    53  H          0.26727400       0.48976300       0.23181100
    54  H          0.73272600       0.51023700       0.73181100
    55  H          0.76727400       0.01023700       0.23181100
    56  H          0.23272600      -0.01023700       0.73181100
    57  C          0.15632150       0.57683000       0.27004000
    58  C          0.84367850       0.42317000       0.77004000
    59  C          0.65632150       0.92317000       0.27004000
    60  C          0.34367850       0.07683000       0.77004000
    61  H          0.15748800       0.62588600       0.16437200
    62  H          0.84251200       0.37411400       0.66437200
    63  H          0.65748800       0.87411400       0.16437200
    64  H          0.34251200       0.12588600       0.66437200
    65  H          0.17393900       0.64029700       0.35751600
    66  H          0.82606100       0.35970300       0.85751600
    67  H          0.67393900       0.85970300       0.35751600
    68  H          0.32606100       0.14029700       0.85751600
    69  H          0.10077000       0.54473900       0.29263200
    70  H          0.89923000       0.45526100       0.79263200
    71  H          0.60077000       0.95526100       0.29263200
    72  H          0.39923000       0.04473900       0.79263200
    73  C          0.18602000       0.35334000       0.13563000
    74  C          0.81398000       0.64666000       0.63563000
    75  C          0.68602000       0.14666000       0.13563000
    76  C          0.31398000       0.85334000       0.63563000
    77  H          0.18113100       0.40116000       0.02959600
    78  H          0.81886900       0.59884000       0.52959600
    79  H          0.68113100       0.09884000       0.02959600
    80  H          0.31886900       0.90116000       0.52959600
    81  H          0.13323900       0.31329700       0.16611800
    82  H          0.86676100       0.68670300       0.66611800
    83  H          0.63323900       0.18670300       0.16611800
    84  H          0.36676100       0.81329700       0.66611800
    85  H          0.22653300       0.27854600       0.12674600
    86  H          0.77346700       0.72145400       0.62674600
    87  H          0.72653300       0.22145400       0.12674600
    88  H          0.27346700       0.77854600       0.62674600
    89  O          0.60091900       0.51952000       0.36230190
    90  O          0.39908100       0.48048000       0.86230190
    91  O          0.10091900       0.98048000       0.36230190
    92  O          0.89908100       0.01952000       0.86230190
    93  O          0.67587800       0.42554160       0.56292180
    94  O          0.32412200       0.57445840       0.06292180
    95  O          0.17587800       0.07445840       0.56292180
    96  O          0.82412200       0.92554160       0.06292180
    97  N          0.54477800       0.37352150       0.75752000
    98  N          0.45522200       0.62647850       0.25752000
    99  N          0.04477800       0.12647850       0.75752000
   100  N          0.95522200       0.87352150       0.25752000
   101  H          0.49948300       0.38818200       0.81958200
   102  H          0.50051700       0.61181800       0.31958200
   103  H         -0.00051700       0.11181800       0.81958200
   104  H          0.00051700       0.88818200       0.31958200
   105  H          0.58675000       0.41941200       0.80659600
   106  H          0.41325000       0.58058800       0.30659600
   107  H          0.08675000       0.08058800       0.80659600
   108  H          0.91325000       0.91941200       0.30659600
   109  C          0.53123100       0.43532000       0.59272000
   110  C          0.46876900       0.56468000       0.09272000
   111  C          0.03123100       0.06468000       0.59272000
   112  C          0.96876900       0.93532000       0.09272000
   113  H          0.50156500       0.52467400       0.60500200
   114  H          0.49843500       0.47532600       0.10500200
   115  H          0.00156500       0.97532600       0.60500200
   116  H         -0.00156500       0.02467400       0.10500200
   117  H          0.49674600       0.37157700       0.52694900
   118  H          0.50325400       0.62842300       0.02694900
   119  H         -0.00325400       0.12842300       0.52694900
   120  H          0.00325400       0.87157700       0.02694900
   121  C          0.61062100       0.46161180       0.50122000
   122  C          0.38937900       0.53838820       0.00122000
   123  C          0.11062100       0.03838820       0.50122000
   124  C          0.88937900       0.96161180       0.00122000
   125  C          0.56338130       0.22092000       0.75773000
   126  C          0.43661870       0.77908000       0.25773000
   127  C          0.06338130       0.27908000       0.75773000
   128  C          0.93661870       0.72092000       0.25773000
   129  H          0.52774600       0.17319200       0.67907900
   130  H          0.47225400       0.82680800       0.17907900
   131  H          0.02774600       0.32680800       0.67907900
   132  H          0.97225400       0.67319200       0.17907900
   133  H          0.55424700       0.18287400       0.86803300
   134  H          0.44575300       0.81712600       0.36803300
   135  H          0.05424700       0.31712600       0.86803300
   136  H          0.94575300       0.68287400       0.36803300
   137  H          0.62035000       0.20639400       0.72618500
   138  H          0.37965000       0.79360600       0.22618500
   139  H          0.12035000       0.29360600       0.72618500
   140  H          0.87965000       0.70639400       0.22618500
