data_WIVFEM
_symmetry_space_group_name_H-M    'P1'
_symmetry_Int_Tables_number       1
loop_
_symmetry_equiv_pos_site_id
_symmetry_equiv_pos_as_xyz
1 x,y,z
_cell_length_a                   8.50201
_cell_length_b                   6.890317
_cell_length_c                   10.857718
_cell_angle_alpha                90.0
_cell_angle_beta                 100.7951
_cell_angle_gamma                90.0
loop_
_atom_site_label
_atom_site_type_symbol
_atom_site_fract_x
_atom_site_fract_y
_atom_site_fract_z
     1  Br         0.29933110       0.00000000       0.84323800
     2  Br         0.79933110       0.50000000       0.84323800
     3  Br         0.70066890      -0.00000000       0.15676200
     4  Br         0.20066890       0.50000000       0.15676200
     5  O          0.31288000       0.00000000       0.12536000
     6  O          0.81288000       0.50000000       0.12536000
     7  O          0.68712000      -0.00000000       0.87464000
     8  O          0.18712000       0.50000000       0.87464000
     9  H          0.31000000       0.00000000       0.20040000
    10  H          0.81000000       0.50000000       0.20040000
    11  H          0.69000000      -0.00000000       0.79960000
    12  H          0.19000000       0.50000000       0.79960000
    13  O          0.93361000       0.00000000       0.75306000
    14  O          0.43361000       0.50000000       0.75306000
    15  O          0.06639000      -0.00000000       0.24694000
    16  O          0.56639000       0.50000000       0.24694000
    17  C          0.13451200       0.00000000       0.93259000
    18  C          0.63451200       0.50000000       0.93259000
    19  C          0.86548800      -0.00000000       0.06741000
    20  C          0.36548800       0.50000000       0.06741000
    21  C          0.16331100       0.00000000       0.05907000
    22  C          0.66331100       0.50000000       0.05907000
    23  C          0.83668900       0.00000000       0.94093000
    24  C          0.33668900       0.50000000       0.94093000
    25  C          0.96878800       0.00000000       0.86518000
    26  C          0.46878800       0.50000000       0.86518000
    27  C          0.03121200      -0.00000000       0.13482000
    28  C          0.53121200       0.50000000       0.13482000
    29  N          0.07551300       0.50000000       0.62538000
    30  N          0.57551300       0.00000000       0.62538000
    31  N          0.92448700       0.50000000       0.37462000
    32  N          0.42448700       0.00000000       0.37462000
    33  C          0.03661700       0.66118200       0.56179000
    34  C          0.53661700       0.16118200       0.56179000
    35  C          0.96338300       0.66118200       0.43821000
    36  C          0.46338300       0.16118200       0.43821000
    37  C          0.96338300       0.33881800       0.43821000
    38  C          0.46338300       0.83881800       0.43821000
    39  C          0.03661700       0.33881800       0.56179000
    40  C          0.53661700       0.83881800       0.56179000
    41  H          0.05970000       0.77950000       0.60220000
    42  H          0.55970000       0.27950000       0.60220000
    43  H          0.94030000       0.77950000       0.39780000
    44  H          0.44030000       0.27950000       0.39780000
    45  H          0.94030000       0.22050000       0.39780000
    46  H          0.44030000       0.72050000       0.39780000
    47  H          0.05970000       0.22050000       0.60220000
    48  H          0.55970000       0.72050000       0.60220000
