data_WIVHEP
_symmetry_space_group_name_H-M    'P1'
_symmetry_Int_Tables_number       1
loop_
_symmetry_equiv_pos_site_id
_symmetry_equiv_pos_as_xyz
1 x,y,z
_cell_length_a                   6.28932
_cell_length_b                   7.97012
_cell_length_c                   43.704411
_cell_angle_alpha                90.0
_cell_angle_beta                 92.94701
_cell_angle_gamma                90.0
loop_
_atom_site_label
_atom_site_type_symbol
_atom_site_fract_x
_atom_site_fract_y
_atom_site_fract_z
     1  O          0.63124870       0.28880110       0.15275200
     2  O          0.36875130       0.78880110       0.34724800
     3  O          0.36875130       0.71119890       0.84724800
     4  O          0.63124870       0.21119890       0.65275200
     5  O          0.30237130       0.82469890       0.25340718
     6  O          0.69762870       0.32469890       0.24659282
     7  O          0.69762870       0.17530110       0.74659282
     8  O          0.30237130       0.67530110       0.75340718
     9  O          0.07201150       0.79132120       0.04737719
    10  O          0.92798850       0.29132120       0.45262281
    11  O          0.92798850       0.20867880       0.95262281
    12  O          0.07201150       0.70867880       0.54737719
    13  H          0.19530000       0.83830000       0.04774000
    14  H          0.80470000       0.33830000       0.45226000
    15  H          0.80470000       0.16170000       0.95226000
    16  H          0.19530000       0.66170000       0.54774000
    17  C          0.82430830       0.28736130       0.15272200
    18  C          0.17569170       0.78736130       0.34727800
    19  C          0.17569170       0.71263870       0.84727800
    20  C          0.82430830       0.21263870       0.65272200
    21  C          0.93836840       0.12286130       0.14398200
    22  C          0.06163160       0.62286130       0.35601800
    23  C          0.06163160       0.87713870       0.85601800
    24  C          0.93836840       0.37713870       0.64398200
    25  C          0.94806840       0.45155130       0.16032200
    26  C          0.05193160       0.95155130       0.33967800
    27  C          0.05193160       0.54844870       0.83967800
    28  C          0.94806840       0.04844870       0.66032200
    29  C          0.09702180       0.15499140       0.11890200
    30  C          0.90297820       0.65499140       0.38109800
    31  C          0.90297820       0.84500860       0.88109800
    32  C          0.09702180       0.34500860       0.61890200
    33  H          0.14620000       0.04701900       0.11093000
    34  H          0.85380000       0.54701900       0.38907000
    35  H          0.85380000       0.95298100       0.88907000
    36  H          0.14620000       0.45298100       0.61093000
    37  H          0.22220000       0.22020000       0.12593000
    38  H          0.77780000       0.72020000       0.37407000
    39  H          0.77780000       0.77980000       0.87407000
    40  H          0.22220000       0.27980000       0.62593000
    41  H          0.02520000       0.21571800       0.10153000
    42  H          0.97480000       0.71571800       0.39847000
    43  H          0.97480000       0.78428200       0.89847000
    44  H          0.02520000       0.28428200       0.60153000
    45  C          0.76981810      -0.00273150       0.13140300
    46  C          0.23018190       0.49726850       0.36859700
    47  C          0.23018190       0.00273150       0.86859700
    48  C          0.76981810       0.50273150       0.63140300
    49  H          0.69470000       0.04120000       0.11254000
    50  H          0.30530000       0.54120000       0.38746000
    51  H          0.30530000       0.95880000       0.88746000
    52  H          0.69470000       0.45880000       0.61254000
    53  H          0.84480000       0.89280000       0.12604000
    54  H          0.15520000       0.39280000       0.37396000
    55  H          0.15520000       0.10720000       0.87396000
    56  H          0.84480000       0.60720000       0.62604000
    57  H          0.66580000       0.97128100       0.14703000
    58  H          0.33420000       0.47128100       0.35297000
    59  H          0.33420000       0.02871900       0.85297000
    60  H          0.66580000       0.52871900       0.64703000
    61  C          0.80298810       0.56911140       0.17808300
    62  C          0.19701190       0.06911140       0.32191700
    63  C          0.19701190       0.43088860       0.82191700
    64  C          0.80298810       0.93088860       0.67808300
    65  H          0.76280000       0.51720000       0.19734000
    66  H          0.23720000       0.01720000       0.30266000
    67  H          0.23720000       0.48280000       0.80266000
    68  H          0.76280000      -0.01720000       0.69734000
    69  H          0.66680000       0.59501900       0.16573000
    70  H          0.33320000       0.09501900       0.33427000
    71  H          0.33320000       0.40498100       0.83427000
    72  H          0.66680000       0.90498100       0.66573000
    73  H          0.87970000       0.67520000       0.18234000
    74  H          0.12030000       0.17520000       0.31766000
    75  H          0.12030000       0.32480000       0.81766000
    76  H          0.87970000       0.82480000       0.68234000
    77  C          0.15154180       0.42291140       0.18067300
    78  C          0.84845820       0.92291140       0.31932700
    79  C          0.84845820       0.57708860       0.81932700
    80  C          0.15154180       0.07708860       0.68067300
    81  H          0.22220000       0.53320000       0.18573000
    82  H          0.77780000       0.03320000       0.31427000
    83  H          0.77780000       0.46680000       0.81427000
    84  H          0.22220000       0.96680000       0.68573000
    85  H          0.26020000       0.35220000       0.17113000
    86  H          0.73980000       0.85220000       0.32887000
    87  H          0.73980000       0.64780000       0.82887000
    88  H          0.26020000       0.14780000       0.67113000
    89  H          0.11320000       0.37120000       0.20034000
    90  H          0.88680000       0.87120000       0.29966000
    91  H          0.88680000       0.62880000       0.79966000
    92  H          0.11320000       0.12880000       0.70034000
    93  C          0.04446160       0.04496120       0.17299200
    94  C          0.95553840       0.54496120       0.32700800
    95  C          0.95553840       0.95503880       0.82700800
    96  C          0.04446160       0.45503880       0.67299200
    97  C          0.23708170       0.96007870       0.17263200
    98  C          0.76291830       0.46007870       0.32736800
    99  C          0.76291830       0.03992130       0.82736800
   100  C          0.23708170       0.53992130       0.67263200
   101  H          0.31120000       0.95478100       0.15383000
   102  H          0.68880000       0.45478100       0.34617000
   103  H          0.68880000       0.04521900       0.84617000
   104  H          0.31120000       0.54521900       0.65383000
   105  C          0.32823170       0.88252870       0.19877300
   106  C          0.67176830       0.38252870       0.30122700
   107  C          0.67176830       0.11747130       0.80122700
   108  C          0.32823170       0.61747130       0.69877300
   109  H          0.46230000       0.82580000       0.19784000
   110  H          0.53770000       0.32580000       0.30216000
   111  H          0.53770000       0.17420000       0.80216000
   112  H          0.46230000       0.67420000       0.69784000
   113  C          0.22559170       0.89115870       0.22608200
   114  C          0.77440830       0.39115870       0.27391800
   115  C          0.77440830       0.10884130       0.77391800
   116  C          0.22559170       0.60884130       0.72608200
   117  C          0.03139180       0.97570850       0.22706300
   118  C          0.96860820       0.47570850       0.27293700
   119  C          0.96860820       0.02429150       0.77293700
   120  C          0.03139180       0.52429150       0.72706300
   121  H          0.94880000       0.97728300       0.25013000
   122  H          0.05120000       0.47728300       0.24987000
   123  H          0.05120000       0.02271700       0.74987000
   124  H          0.94880000       0.52271700       0.75013000
   125  C          0.94224830       0.04971140       0.20070200
   126  C          0.05775170       0.54971140       0.29929800
   127  C          0.05775170       0.95028860       0.79929800
   128  C          0.94224830       0.45028860       0.70070200
   129  H          0.80780000       0.10571900       0.20173000
   130  H          0.19220000       0.60571900       0.29827000
   131  H          0.19220000       0.89428100       0.79827000
   132  H          0.80780000       0.39428100       0.70173000
   133  C         -0.00854170       0.53499120       0.12952200
   134  C          0.00854170       0.03499120       0.37047800
   135  C          0.00854170       0.46500880       0.87047800
   136  C         -0.00854170       0.96500880       0.62952200
   137  C          0.19169170       0.59500140       0.12260200
   138  C          0.80830830       0.09500140       0.37739800
   139  C          0.80830830       0.40499860       0.87739800
   140  C          0.19169170       0.90499860       0.62260200
   141  H          0.31120000       0.57851800       0.13733000
   142  H          0.68880000       0.07851800       0.36267000
   143  H          0.68880000       0.42148200       0.86267000
   144  H          0.31120000       0.92148200       0.63733000
   145  C          0.22285180       0.67989140       0.09527300
   146  C          0.77714820       0.17989140       0.40472700
   147  C          0.77714820       0.32010860       0.90472700
   148  C          0.22285180       0.82010860       0.59527300
   149  H          0.36120000       0.72411900       0.09163000
   150  H          0.63880000       0.22411900       0.40837000
   151  H          0.63880000       0.27588100       0.90837000
   152  H          0.36120000       0.77588100       0.59163000
   153  C          0.05278180       0.70606140       0.07419200
   154  C          0.94721820       0.20606140       0.42580800
   155  C          0.94721820       0.29393860       0.92580800
   156  C          0.05278180       0.79393860       0.57419200
   157  C          0.85221820       0.64407140       0.08044200
   158  C          0.14778180       0.14407140       0.41955800
   159  C          0.14778180       0.35592860       0.91955800
   160  C          0.85221820       0.85592860       0.58044200
   161  H          0.73280000       0.66871900       0.06603000
   162  H          0.26720000       0.16871900       0.43397000
   163  H          0.26720000       0.33128100       0.93397000
   164  H          0.73280000       0.83128100       0.56603000
   165  C          0.82340830       0.56011130       0.10773200
   166  C          0.17659170       0.06011130       0.39226800
   167  C          0.17659170       0.43988870       0.89226800
   168  C          0.82340830       0.93988870       0.60773200
   169  H          0.68380000       0.52041800       0.11203000
   170  H          0.31620000       0.02041800       0.38797000
   171  H          0.31620000       0.47958200       0.88797000
   172  H          0.68380000       0.97958200       0.61203000
   173  C          0.50062000       0.73930830       0.25343300
   174  C          0.49938000       0.23930830       0.24656700
   175  C          0.49938000       0.26069170       0.74656700
   176  C          0.50062000       0.76069170       0.75343300
   177  H          0.49130000       0.64080000       0.23994000
   178  H          0.50870000       0.14080000       0.26006000
   179  H          0.50870000       0.35920000       0.76006000
   180  H          0.49130000       0.85920000       0.73994000
   181  H          0.61520000       0.81380000       0.24634000
   182  H          0.38480000       0.31380000       0.25366000
   183  H          0.38480000       0.18620000       0.75366000
   184  H          0.61520000       0.68620000       0.74634000
   185  H          0.53430000       0.70480000       0.27464000
   186  H          0.46570000       0.20480000       0.22536000
   187  H          0.46570000       0.29520000       0.72536000
   188  H          0.53430000       0.79520000       0.77464000
   189  O          0.44697140       0.96121890       0.04771200
   190  O          0.55302860       0.46121890       0.45228800
   191  O          0.55302860       0.03878110       0.95228800
   192  O          0.44697140       0.53878110       0.54771200
   193  C          0.44536190       0.11404160       0.04469300
   194  C          0.55463810       0.61404160       0.45530700
   195  C          0.55463810       0.88595840       0.95530700
   196  C          0.44536190       0.38595840       0.54469300
   197  C          0.64272000       0.21820160       0.05010300
   198  C          0.35728000       0.71820160       0.44989700
   199  C          0.35728000       0.78179840       0.94989700
   200  C          0.64272000       0.28179840       0.55010300
   201  H          0.76630000       0.13820000       0.05384000
   202  H          0.23370000       0.63820000       0.44616000
   203  H          0.23370000       0.86180000       0.94616000
   204  H          0.76630000       0.36180000       0.55384000
   205  H          0.62130000       0.29020000       0.06924000
   206  H          0.37870000       0.79020000       0.43076000
   207  H          0.37870000       0.70980000       0.93076000
   208  H          0.62130000       0.20980000       0.56924000
   209  C          0.67769180       0.33731150       0.02314300
   210  C          0.32230820       0.83731150       0.47685700
   211  C          0.32230820       0.66268850       0.97685700
   212  C          0.67769180       0.16268850       0.52314300
   213  H          0.71620000       0.27020000       0.00514000
   214  H          0.28380000       0.77020000       0.49486000
   215  H          0.28380000       0.72980000       0.99486000
   216  H          0.71620000       0.22980000       0.50514000
   217  H          0.80030000       0.40820000       0.02824000
   218  H          0.19970000       0.90820000       0.47176000
   219  H          0.19970000       0.59180000       0.97176000
   220  H          0.80030000       0.09180000       0.52824000
   221  C          0.48085170       0.44241140       0.01377200
   222  C          0.51914830       0.94241140       0.48622800
   223  C          0.51914830       0.55758860       0.98622800
   224  C          0.48085170       0.05758860       0.51377200
   225  H          0.44820000       0.51820000       0.03224000
   226  H          0.55180000       0.01820000       0.46776000
   227  H          0.55180000       0.48180000       0.96776000
   228  H          0.44820000       0.98180000       0.53224000
   229  C          0.29098180       0.32494160       0.00742300
   230  C          0.70901820       0.82494160       0.49257700
   231  C          0.70901820       0.67505840       0.99257700
   232  C          0.29098180       0.17505840       0.50742300
   233  H          0.16130000       0.38920000       0.00254000
   234  H          0.83870000       0.88920000       0.49746000
   235  H          0.83870000       0.61080000      -0.00254000
   236  H          0.16130000       0.11080000       0.50254000
   237  H          0.32330000       0.24920000       0.98966000
   238  H          0.67670000       0.74920000       0.51034000
   239  H          0.67670000       0.75080000       0.01034000
   240  H          0.32330000       0.25080000       0.48966000
   241  C          0.24842000       0.21098180       0.03481300
   242  C          0.75158000       0.71098180       0.46518700
   243  C          0.75158000       0.78901820       0.96518700
   244  C          0.24842000       0.28901820       0.53481300
   245  H          0.12930000       0.12420000       0.02864000
   246  H          0.87070000       0.62420000       0.47136000
   247  H          0.87070000       0.87580000       0.97136000
   248  H          0.12930000       0.37580000       0.52864000
   249  H          0.21430000       0.28820000       0.05254000
   250  H          0.78570000       0.78820000       0.44746000
   251  H          0.78570000       0.71180000       0.94746000
   252  H          0.21430000       0.21180000       0.55254000
