data_WIXDOY
_symmetry_space_group_name_H-M    'P1'
_symmetry_Int_Tables_number       1
loop_
_symmetry_equiv_pos_site_id
_symmetry_equiv_pos_as_xyz
1 x,y,z
_cell_length_a                   11.89008
_cell_length_b                   4.96213
_cell_length_c                   21.428114
_cell_angle_alpha                90.0
_cell_angle_beta                 90.6636
_cell_angle_gamma                90.0
loop_
_atom_site_label
_atom_site_type_symbol
_atom_site_fract_x
_atom_site_fract_y
_atom_site_fract_z
     1  Cl         0.01946130       0.17903000       0.43340700
     2  Cl         0.98053870       0.67903000       0.56659300
     3  O          0.49733000       0.52646000       0.21080160
     4  O          0.50267000       0.02646000       0.78919840
     5  N          0.83653000       0.71757000       0.15036160
     6  N          0.16347000       0.21757000       0.84963840
     7  O          0.35593000       0.77166000       0.17348140
     8  O          0.64407000       0.27166000       0.82651860
     9  O          0.67103000       0.02406000       0.96987860
    10  O          0.32897000       0.52406000       0.03012140
    11  C          0.46224000       0.69091000       0.17492000
    12  C          0.53776000       0.19091000       0.82508000
    13  C          0.81414000       0.53398000       0.10022000
    14  C          0.18586000       0.03398000       0.89978000
    15  C          0.72254000       0.19069000       0.01222000
    16  C          0.27746000       0.69069000       0.98778000
    17  O          0.24593000       0.66497000       0.32570170
    18  O          0.75407000       0.16497000       0.67429830
    19  C          0.73254000       0.84879000       0.16401190
    20  C          0.26746000       0.34879000       0.83598810
    21  C          0.90164000       0.76048000       0.28882000
    22  C          0.09836000       0.26048000       0.71118000
    23  H          0.85070000       0.62070000       0.28200000
    24  H          0.14930000       0.12070000       0.71800000
    25  O          0.02643000       0.70868000       0.14464160
    26  O          0.97357000       0.20868000       0.85535840
    27  C          0.69954000       0.54388000       0.08722000
    28  C          0.30046000       0.04388000       0.91278000
    29  C          0.95594000       0.87459000       0.23872000
    30  C          0.04406000       0.37459000       0.76128000
    31  C          0.65244000       0.37189000       0.04252000
    32  C          0.34756000       0.87189000       0.95748000
    33  H          0.57580000       0.37800000       0.03320000
    34  H          0.42420000       0.87800000       0.96680000
    35  C          0.94324000       0.76659000       0.17402000
    36  C          0.05676000       0.26659000       0.82598000
    37  C          0.65084000       0.74768000       0.12682000
    38  C          0.34916000       0.24768000       0.87318000
    39  C         -0.00455000       0.05841000       0.35782000
    40  C          0.00455000       0.55841000       0.64218000
    41  C          0.03224000       0.07909000       0.24972000
    42  C          0.96776000       0.57909000       0.75028000
    43  H          0.07080000       0.15380000       0.21640000
    44  H          0.92920000       0.65380000       0.78360000
    45  C          0.28524000       0.65101000       0.22002000
    46  C          0.71476000       0.15101000       0.77998000
    47  H          0.30320000       0.46120000       0.22420000
    48  H          0.69680000       0.96120000       0.77580000
    49  H          0.20690000       0.66630000       0.20720000
    50  H          0.79310000       0.16630000       0.79280000
    51  C          0.92165000       0.85061000       0.34922000
    52  C          0.07835000       0.35061000       0.65078000
    53  H          0.88560000       0.77170000       0.38290000
    54  H          0.11440000       0.27170000       0.61710000
    55  C          0.88484000       0.35669000       0.07032000
    56  C          0.11516000       0.85669000       0.92968000
    57  H          0.96140000       0.35200000       0.07940000
    58  H          0.03860000       0.85200000       0.92060000
    59  C          0.53014000       0.83369000       0.12642000
    60  C          0.46986000       0.33369000       0.87358000
    61  H          0.49740000       0.79800000       0.08550000
    62  H          0.50260000       0.29800000       0.91450000
    63  H          0.52620000       0.02630000       0.13370000
    64  H          0.47380000       0.52630000       0.86630000
    65  C          0.30315000       0.79141100       0.28192000
    66  C          0.69685000       0.29141100       0.71808000
    67  C          0.83744000       0.18519000       0.02602000
    68  C          0.16256000       0.68519000       0.97398000
    69  H          0.88330000       0.06400000       0.00510000
    70  H          0.11670000       0.56400000      -0.00510000
    71  C          0.74124000       0.85079000       0.93398000
    72  C          0.25876000       0.35079000       0.06602000
    73  H          0.79760000       0.95620000       0.91360000
    74  H          0.20240000       0.45620000       0.08640000
    75  H          0.69630000       0.75820000       0.90330000
    76  H          0.30370000       0.25820000       0.09670000
    77  H          0.77690000       0.72160000       0.96110000
    78  H          0.22310000       0.22160000       0.03890000
    79  C          0.72084000       0.07288000       0.21032000
    80  C          0.27916000       0.57288000       0.78968000
    81  H          0.65930000       0.18710000       0.19800000
    82  H          0.34070000       0.68710000       0.80200000
    83  H          0.78900000       0.17630000       0.21170000
    84  H          0.21100000       0.67630000       0.78830000
    85  H          0.70650000      -0.00130000       0.25080000
    86  H          0.29350000       0.49870000       0.74920000
    87  O          0.35714000      -0.01172000       0.28975170
    88  O          0.64286000       0.48828000       0.71024830
    89  C          0.05194000       0.17401100       0.30922000
    90  C          0.94806000       0.67401100       0.69078000
    91  H          0.10260000       0.31380000       0.31620000
    92  H          0.89740000       0.81380000       0.68380000
    93  H          0.26160000       0.73415000       0.36640000
    94  H          0.73840000       0.23415000       0.63360000
    95  C          0.72175000       0.31051000       0.45203000
    96  C          0.27825000       0.81051000       0.54797000
    97  H          0.74890000       0.21350000       0.41830000
    98  H          0.25110000       0.71350000       0.58170000
    99  O          0.60364000       0.85137000       0.36740180
   100  O          0.39636000       0.35137000       0.63259820
   101  C          0.61525000       0.66161100       0.49453000
   102  C          0.38475000       0.16161100       0.50547000
   103  H          0.56970000       0.81300000       0.49020000
   104  H          0.43030000       0.31300000       0.50980000
   105  C          0.64984000       0.52241000       0.44252000
   106  C          0.35016000       0.02241000       0.55748000
   107  N          0.58665000       0.42101000       0.33813000
   108  N          0.41335000       0.92101000       0.66187000
   109  C          0.64905000       0.57351100       0.55353000
   110  C          0.35095000       0.07351100       0.44647000
   111  H          0.62220000       0.66450000       0.58830000
   112  H          0.37780000       0.16450000       0.41170000
   113  N          0.71674000       0.36851000       0.56242000
   114  N          0.28326000       0.86851000       0.43758000
   115  C          0.61165000       0.61381100       0.37903000
   116  C          0.38835000       0.11381100       0.62097000
   117  C          0.75375000       0.24171100       0.51243000
   118  C          0.24625000       0.74171100       0.48757000
   119  H          0.80370000       0.09930000       0.51800000
   120  H          0.19630000       0.59930000       0.48200000
   121  H          0.55460000       0.45414000       0.30231800
   122  H          0.44540000       0.95414000       0.69768200
   123  H          0.58150000       0.24850000       0.34730000
   124  H          0.41850000       0.74850000       0.65270000
