data_WIYLAT
_symmetry_space_group_name_H-M    'P1'
_symmetry_Int_Tables_number       1
loop_
_symmetry_equiv_pos_site_id
_symmetry_equiv_pos_as_xyz
1 x,y,z
_cell_length_a                   8.810913
_cell_length_b                   12.722216
_cell_length_c                   13.169614
_cell_angle_alpha                66.2276
_cell_angle_beta                 73.7976
_cell_angle_gamma                88.0689
loop_
_atom_site_label
_atom_site_type_symbol
_atom_site_fract_x
_atom_site_fract_y
_atom_site_fract_z
     1  S          0.95910500       0.03018400       0.25889500
     2  S          0.04089500       0.96981600       0.74110500
     3  S          0.34188500       0.07956300       0.19769300
     4  S          0.65811500       0.92043700       0.80230700
     5  O          0.23839150       0.12511110       0.27391100
     6  O          0.76160850       0.87488890       0.72608900
     7  O          0.49844150       0.05721110       0.21024110
     8  O          0.50155850       0.94278890       0.78975890
     9  N          0.04768190       0.85733870       0.21606140
    10  N          0.95231810       0.14266130       0.78393860
    11  H          0.10530000       0.80480000       0.19620000
    12  H          0.89470000       0.19520000       0.80380000
    13  N          0.26444170       0.95941880       0.21139120
    14  N          0.73555830       0.04058120       0.78860880
    15  N          0.37792000       0.37727130       0.71067870
    16  N          0.62208000       0.62272870       0.28932130
    17  H          0.31130000       0.42661900       0.69328200
    18  H          0.68870000       0.57338100       0.30671800
    19  H          0.42430000       0.35271800       0.65608100
    20  H          0.57570000       0.64728200       0.34391900
    21  C          0.11132000       0.94647860       0.22511140
    22  C          0.88868000       0.05352140       0.77488860
    23  C          0.81888000       0.93991820       0.25492000
    24  C          0.18112000       0.06008180       0.74508000
    25  H          0.70930000       0.95120000       0.26700000
    26  H          0.29070000       0.04880000       0.73300000
    27  C          0.88538000       0.85332820       0.23302000
    28  C          0.11462000       0.14667180       0.76698000
    29  H          0.82710000       0.79420000       0.22920000
    30  H          0.17290000       0.20580000       0.77080000
    31  C          0.35942000       0.17515140       0.05455140
    32  C          0.64058000       0.82484860       0.94544860
    33  C          0.25962000       0.26325150       0.02888150
    34  C          0.74038000       0.73674850       0.97111850
    35  H          0.18670000       0.27680000       0.08980000
    36  H          0.81330000       0.72320000       0.91020000
    37  C          0.26622000       0.33105150       0.91504850
    38  C          0.73378000       0.66894850       0.08495150
    39  H          0.19870000       0.39170000       0.89860000
    40  H          0.80130000       0.60830000       0.10140000
    41  C          0.37122000       0.31199140       0.82303860
    42  C          0.62878000       0.68800860       0.17696140
    43  C          0.47182000       0.22258150       0.85104850
    44  C          0.52818000       0.77741850       0.14895150
    45  H          0.54450000       0.20810000       0.79070000
    46  H          0.45550000       0.79190000       0.20930000
    47  C          0.46622000       0.15621140       0.96414850
    48  C          0.53378000       0.84378860       0.03585150
    49  H          0.53550000       0.09680000       0.98110000
    50  H          0.46450000       0.90320000       0.01890000
    51  N          0.71021170       0.54364120       0.51665120
    52  N          0.28978830       0.45635880       0.48334880
    53  N          0.80820170       0.39937120       0.65988120
    54  N          0.19179830       0.60062880       0.34011880
    55  N          0.65974180       0.54222120       0.70455120
    56  N          0.34025820       0.45777880       0.29544880
    57  N          0.50169170       0.71447120       0.47243120
    58  N          0.49830830       0.28552880       0.52756880
    59  N          0.83810180       0.44100130       0.36693130
    60  N          0.16189820       0.55899870       0.63306870
    61  N          0.82618180       0.29923130       0.88291130
    62  N          0.17381820       0.70076870       0.11708870
    63  C          0.64682000       0.58500140       0.59665140
    64  C          0.35318000       0.41499860       0.40334860
    65  C          0.79052000       0.45104140       0.55329140
    66  C          0.20948000       0.54895860       0.44670860
    67  C          0.74102000       0.44915140       0.73159140
    68  C          0.25898000       0.55084860       0.26840860
    69  C          0.55452000       0.68775140       0.56574140
    70  C          0.44548000       0.31224860       0.43425860
    71  C          0.41652000       0.80561150       0.44615150
    72  C          0.58348000       0.19438850       0.55384850
    73  H          0.37770000       0.82510000       0.38090000
    74  H          0.62230000       0.17490000       0.61910000
    75  C          0.38142000       0.87340150       0.50870150
    76  C          0.61858000       0.12659850       0.49129850
    77  H          0.31920000       0.93670000       0.48730000
    78  H          0.68080000       0.06330000       0.51270000
    79  C          0.43932000       0.84643150       0.60282160
    80  C          0.56068000       0.15356850       0.39717840
    81  H          0.41970000       0.89210000       0.64640000
    82  H          0.58030000       0.10790000       0.35360000
    83  C          0.52652000       0.75155150       0.63252150
    84  C          0.47348000       0.24844850       0.36747850
    85  H          0.56650000       0.73050000       0.69740000
    86  H          0.43350000       0.26950000       0.30260000
    87  C          0.86712000       0.39881140       0.47031150
    88  C          0.13288000       0.60118860       0.52968850
    89  C          0.90062000       0.39032160       0.29539160
    90  C          0.09938000       0.60967840       0.70460840
    91  H          0.88030000       0.41900000       0.22220000
    92  H          0.11970000       0.58100000       0.77780000
    93  C         -0.00678000       0.29850160       0.32140160
    94  C          0.00678000       0.70149840       0.67859840
    95  H          0.03350000       0.26460000       0.26790000
    96  H          0.96650000       0.73540000       0.73210000
    97  C          0.02552000       0.25734160       0.42662160
    98  C          0.97448000       0.74265840       0.57337840
    99  H          0.09010000       0.19520000       0.44670000
   100  H          0.90990000       0.80480000       0.55330000
   101  C          0.96192000       0.30844150       0.50265150
   102  C          0.03808000       0.69155850       0.49734850
   103  H          0.98280000       0.28220000       0.57550000
   104  H          0.01720000       0.71780000       0.42450000
   105  C          0.75472000       0.39769140       0.85213150
   106  C          0.24528000       0.60230860       0.14786850
   107  C          0.83632000       0.25076160      -0.00859840
   108  C          0.16368000       0.74923840       0.00859840
   109  H          0.88690000       0.18130000       0.01390000
   110  H          0.11310000       0.81870000       0.98610000
   111  C          0.77732000       0.29598170       0.07283160
   112  C          0.22268000       0.70401830       0.92716840
   113  H          0.78670000       0.25820000       0.14920000
   114  H          0.21330000       0.74180000       0.85080000
   115  C          0.70442000       0.39730170       0.04045160
   116  C          0.29558000       0.60269830       0.95954840
   117  H          0.66250000       0.43060000       0.09420000
   118  H          0.33750000       0.56940000       0.90580000
   119  C          0.69372000       0.44959160       0.92786160
   120  C          0.30628000       0.55040840       0.07213840
   121  H          0.64530000       0.51980000       0.90310000
   122  H          0.35470000       0.48020000       0.09690000
