data_WIYLAS
_symmetry_space_group_name_H-M    'P1'
_symmetry_Int_Tables_number       1
loop_
_symmetry_equiv_pos_site_id
_symmetry_equiv_pos_as_xyz
1 x,y,z
_cell_length_a                   6.062013
_cell_length_b                   8.220018
_cell_length_c                   14.4803
_cell_angle_alpha                85.4104
_cell_angle_beta                 89.5404
_cell_angle_gamma                83.8904
loop_
_atom_site_label
_atom_site_type_symbol
_atom_site_fract_x
_atom_site_fract_y
_atom_site_fract_z
     1  F          0.16841170       0.16946150       0.77356800
     2  F          0.83158830       0.83053850       0.22643200
     3  F          0.36222000       0.22140160       0.93013800
     4  F          0.63778000       0.77859840       0.06986200
     5  F          0.77922000       0.08244170       0.97049800
     6  F          0.22078000       0.91755830       0.02950200
     7  F         -0.00458820       0.87844840       0.85136900
     8  F          0.00458820       0.12155160       0.14863100
     9  F          0.80343180       0.82299850       0.69317800
    10  F          0.19656820       0.17700150       0.30682200
    11  C          0.37423000       0.09612000       0.78904130
    12  C          0.62577000       0.90388000       0.21095870
    13  C          0.47203000       0.12472000       0.87113130
    14  C          0.52797000       0.87528000       0.12886870
    15  C          0.68253000       0.05262000       0.89169130
    16  C          0.31747000       0.94738000       0.10830870
    17  C          0.79293000       0.95208000       0.83122140
    18  C          0.20707000       0.04792000       0.16877860
    19  C          0.69153000       0.92468000       0.74939130
    20  C          0.30847000       0.07532000       0.25060870
    21  C          0.47963000      -0.00362000       0.72487120
    22  C          0.52037000       0.00362000       0.27512880
    23  C          0.37923000       0.95618000       0.63880130
    24  C          0.62077000       0.04382000       0.36119870
    25  H          0.46030000       0.87330000       0.60640000
    26  H          0.53970000       0.12670000       0.39360000
    27  C          0.18823000       0.02212000       0.60087130
    28  C          0.81177000       0.97788000       0.39912870
    29  H          0.10690000       0.10930000       0.62990000
    30  H          0.89310000       0.89070000       0.37010000
    31  C          0.09773000       0.96877000       0.51818140
    32  C          0.90227000       0.03123000       0.48181860
    33  H          0.18170000       0.88450000       0.48780000
    34  H          0.81830000       0.11550000       0.51220000
    35  C          0.37423000       0.58723000       0.78510140
    36  C          0.62577000       0.41277000       0.21489860
    37  H          0.22670000       0.63340000       0.77120000
    38  H          0.77330000       0.36660000       0.22880000
    39  C          0.46924000       0.61483000       0.86815150
    40  C          0.53076000       0.38517000       0.13184850
    41  H          0.38730000       0.67960000       0.91080000
    42  H          0.61270000       0.32040000       0.08920000
    43  C          0.68343000       0.54823000       0.88894150
    44  C          0.31657000       0.45177000       0.11105850
    45  H          0.74900000       0.56680000       0.94600000
    46  H          0.25100000       0.43320000       0.05400000
    47  C          0.80203000       0.45453000       0.82683150
    48  C          0.19797000       0.54547000       0.17316850
    49  H          0.94980000       0.40930000       0.84110000
    50  H          0.05020000       0.59070000       0.15890000
    51  C          0.70693000       0.42593000       0.74360150
    52  C          0.29307000       0.57407000       0.25639850
    53  H          0.78970000       0.36040000       0.70150000
    54  H          0.21030000       0.63960000       0.29850000
    55  C          0.49183000       0.49202000       0.72121130
    56  C          0.50817000       0.50798000       0.27878870
    57  C          0.39413000       0.45752000       0.63329140
    58  C          0.60587000       0.54248000       0.36670860
    59  H          0.48320000       0.38700000       0.59580000
    60  H          0.51680000       0.61300000       0.40420000
    61  C          0.19373000       0.51482000       0.60063140
    62  C          0.80627000       0.48518000       0.39936860
    63  H          0.10500000       0.58920000       0.63600000
    64  H          0.89500000       0.41080000       0.36400000
    65  C          0.10183000       0.47222000       0.51567140
    66  C          0.89817000       0.52778000       0.48432860
    67  H          0.19140000       0.39970000       0.47940000
    68  H          0.80860000       0.60030000       0.52060000
