data_WOBPAI
_symmetry_space_group_name_H-M    'P1'
_symmetry_Int_Tables_number       1
loop_
_symmetry_equiv_pos_site_id
_symmetry_equiv_pos_as_xyz
1 x,y,z
_cell_length_a                   5.81132
_cell_length_b                   10.22594
_cell_length_c                   13.32984
_cell_angle_alpha                103.65201
_cell_angle_beta                 92.7672
_cell_angle_gamma                96.2522
loop_
_atom_site_label
_atom_site_type_symbol
_atom_site_fract_x
_atom_site_fract_y
_atom_site_fract_z
     1  C          0.31311200       0.75548000       0.36536000
     2  C          0.68688800       0.24452000       0.63464000
     3  I          0.08535110       0.78156700       0.24912500
     4  I          0.91464890       0.21843300       0.75087500
     5  F          0.48011200       0.90536000       0.63694000
     6  F          0.51988800       0.09464000       0.36306000
     7  C          0.32261400       0.83668000       0.46546000
     8  C          0.67738600       0.16332000       0.53454000
     9  I          0.86211100       0.70437800       0.63907500
    10  I          0.13788900       0.29562200       0.36092500
    11  F          0.75371400       0.54508000       0.40105000
    12  F          0.24628600       0.45492000       0.59895000
    13  C          0.47511400       0.82158000       0.54185000
    14  C          0.52488600       0.17842000       0.45815000
    15  F          0.46101400       0.57617000       0.25154000
    16  F          0.53898600       0.42383000       0.74846000
    17  C          0.62431300       0.72428000       0.52356000
    18  C          0.37568700       0.27572000       0.47644000
    19  C          0.61731500       0.64409000       0.42507000
    20  C          0.38268500       0.35591000       0.57493000
    21  C          0.46401500       0.65868000       0.34786000
    22  C          0.53598500       0.34132000       0.65214000
    23  F          0.18371200       0.93167000       0.48895000
    24  F          0.81628800       0.06833000       0.51105000
    25  C         -0.00741200       0.85537000       0.96595000
    26  C          0.00741200       0.14463000       0.03405000
    27  C          0.82898900       0.91277000       0.03685000
    28  C          0.17101100       0.08723000       0.96315000
    29  C          0.67198600       0.82388000       0.07086000
    30  C          0.32801400       0.17612000       0.92914000
    31  H          0.56563800       0.85901800       0.11656100
    32  H          0.43436200       0.14098200       0.88343900
    33  C          0.66748400       0.67899000       0.03798000
    34  C          0.33251600       0.32101000       0.96202000
    35  H          0.56270200       0.62173400       0.06341000
    36  H          0.43729800       0.37826600       0.93659000
    37  C          0.81478400       0.62838000       0.97087000
    38  C          0.18521600       0.37162000       0.02913000
    39  H          0.80815700       0.53458200       0.94808200
    40  H          0.19184300       0.46541800       0.05191800
    41  C         -0.01791300       0.71167000       0.93255000
    42  C          0.01791300       0.28833000       0.06745000
    43  C          0.14461700       0.65689000       0.86457000
    44  C          0.85538300       0.34311000       0.13543000
    45  H          0.13967300       0.56314000       0.84207800
    46  H          0.86032700       0.43686000       0.15792200
    47  C          0.30591700       0.73731000       0.83177000
    48  C          0.69408300       0.26269000       0.16823000
    49  H          0.41155700       0.69874000       0.78694100
    50  H          0.58844300       0.30126000       0.21305900
    51  C          0.31801300       0.87678000       0.86315000
    52  C          0.68198700       0.12322000       0.13685000
    53  H          0.43147400       0.93013000       0.83878400
    54  H          0.56852600       0.06987000       0.16121600
    55  C          0.16351200       0.93987000       0.93095000
    56  C          0.83648800       0.06013000       0.06905000
