data_WOBPOW
_symmetry_space_group_name_H-M    'P1'
_symmetry_Int_Tables_number       1
loop_
_symmetry_equiv_pos_site_id
_symmetry_equiv_pos_as_xyz
1 x,y,z
_cell_length_a                   19.182419
_cell_length_b                   5.92027
_cell_length_c                   8.98149
_cell_angle_alpha                90.0
_cell_angle_beta                 90.6176
_cell_angle_gamma                90.0
loop_
_atom_site_label
_atom_site_type_symbol
_atom_site_fract_x
_atom_site_fract_y
_atom_site_fract_z
     1  C          0.13953000       0.28461100       0.21187000
     2  C          0.86047000       0.78461100       0.28813000
     3  C          0.86047000       0.71538900       0.78813000
     4  C          0.13953000       0.21538900       0.71187000
     5  H          0.12738500       0.14536400       0.17114700
     6  H          0.87261500       0.64536400       0.32885300
     7  H          0.87261500       0.85463600       0.82885300
     8  H          0.12738500       0.35463600       0.67114700
     9  C          0.19883000       0.38951300       0.16717000
    10  C          0.80117000       0.88951300       0.33283000
    11  C          0.80117000       0.61048700       0.83283000
    12  C          0.19883000       0.11048700       0.66717000
    13  H          0.22707100       0.31988500       0.09715600
    14  H          0.77292900       0.81988500       0.40284400
    15  H          0.77292900       0.68011500       0.90284400
    16  H          0.22707100       0.18011500       0.59715600
    17  C          0.21823000       0.60241300       0.22528000
    18  C          0.78177000       0.10241300       0.27472000
    19  C          0.78177000       0.39758700       0.77472000
    20  C          0.21823000       0.89758700       0.72528000
    21  H          0.25850100       0.67253800       0.19188300
    22  H          0.74149900       0.17253800       0.30811700
    23  H          0.74149900       0.32746200       0.80811700
    24  H          0.25850100       0.82746200       0.69188300
    25  C          0.17863000       0.70481100       0.32887000
    26  C          0.82137000       0.20481100       0.17113000
    27  C          0.82137000       0.29518900       0.67113000
    28  C          0.17863000       0.79518900       0.82887000
    29  H          0.19294300       0.84283100       0.36807900
    30  H          0.80705700       0.34283100       0.13192100
    31  H          0.80705700       0.15716900       0.63192100
    32  H          0.19294300       0.65716900       0.86807900
    33  C          0.11503000       0.60511000       0.37956000
    34  C          0.88497000       0.10511000       0.12044000
    35  C          0.88497000       0.39489000       0.62044000
    36  C          0.11503000       0.89489000       0.87956000
    37  C          0.07183000       0.70961000       0.48276000
    38  C          0.92817000       0.20961000       0.01724000
    39  C          0.92817000       0.29039000       0.51724000
    40  C          0.07183000       0.79039000       0.98276000
    41  H          0.08468600       0.84907000       0.52194500
    42  H          0.91531400       0.34907000       0.97805500
    43  H          0.91531400       0.15093000       0.47805500
    44  H          0.08468600       0.65093000       0.02194500
    45  C          0.00993000       0.61059000       0.52846000
    46  C          0.99007000       0.11059000       0.97154000
    47  C          0.99007000       0.38941000       0.47154000
    48  C          0.00993000       0.88941000       0.02846000
    49  C          0.96587000       0.71219000       0.63306000
    50  C          0.03413000       0.21219000       0.86694000
    51  C          0.03413000       0.28781000       0.36694000
    52  C          0.96587000       0.78781000       0.13306000
    53  H          0.97870800       0.85131100       0.67277000
    54  H          0.02129200       0.35131100       0.82723000
    55  H          0.02129200       0.14868900       0.32723000
    56  H          0.97870800       0.64868900       0.17277000
    57  C          0.90447000       0.61381000       0.67946000
    58  C          0.09553000       0.11381000       0.82054000
    59  C          0.09553000       0.38619000       0.32054000
    60  C          0.90447000       0.88619000       0.17946000
    61  I          0.34820200       0.22516100       0.34542500
    62  I          0.65179800       0.72516100       0.15457500
    63  I          0.65179800       0.77483900       0.65457500
    64  I          0.34820200       0.27483900       0.84542500
    65  F          0.50582000       0.39587000       0.35135000
    66  F          0.49418000       0.89587000       0.14865000
    67  F          0.49418000       0.60413000       0.64865000
    68  F          0.50582000       0.10413000       0.85135000
    69  F          0.62232000       0.22107000       0.46445000
    70  F          0.37768000       0.72107000       0.03555000
    71  F          0.37768000       0.77893000       0.53555000
    72  F          0.62232000       0.27893000       0.96445000
    73  C          0.43873000       0.09331100       0.43926000
    74  C          0.56127000       0.59331100       0.06074000
    75  C          0.56127000       0.90668900       0.56074000
    76  C          0.43873000       0.40668900       0.93926000
    77  C          0.50223000       0.19861000       0.42497000
    78  C          0.49777000       0.69861000       0.07503000
    79  C          0.49777000       0.80139000       0.57503000
    80  C          0.50223000       0.30139000       0.92497000
    81  C          0.56203000       0.10881100       0.48307000
    82  C          0.43797000       0.60881100       0.01693000
    83  C          0.43797000       0.89118900       0.51693000
    84  C          0.56203000       0.39118900       0.98307000
