data_WOCHIH
_symmetry_space_group_name_H-M    'P1'
_symmetry_Int_Tables_number       1
loop_
_symmetry_equiv_pos_site_id
_symmetry_equiv_pos_as_xyz
1 x,y,z
_cell_length_a                   7.32132
_cell_length_b                   8.02382
_cell_length_c                   12.69022
_cell_angle_alpha                81.64601
_cell_angle_beta                 85.60101
_cell_angle_gamma                82.15601
loop_
_atom_site_label
_atom_site_type_symbol
_atom_site_fract_x
_atom_site_fract_y
_atom_site_fract_z
     1  O          0.71538140       0.48101110       0.45201600
     2  O          0.28461860       0.51898890       0.54798400
     3  N          0.78642160       0.09751120       0.20125800
     4  N          0.21357840       0.90248880       0.79874200
     5  O          0.51273140       0.64938110       0.11595600
     6  O          0.48726860       0.35061890       0.88404400
     7  C          0.54252000       0.73048150       0.31409100
     8  C          0.45748000       0.26951850       0.68590900
     9  H          0.46130000       0.71630000       0.37690000
    10  H          0.53870000       0.28370000       0.62310000
    11  H          0.47560000       0.79660000       0.25680000
    12  H          0.52440000       0.20340000       0.74320000
    13  H          0.64290000       0.78780000       0.32840000
    14  H          0.35710000       0.21220000       0.67160000
    15  N          0.61565120       0.56322110       0.28379600
    16  N          0.38434880       0.43677890       0.71620400
    17  N          0.65402160       0.28643130       0.07386700
    18  N          0.34597840       0.71356870       0.92613300
    19  C          0.73302000       0.12735160       0.10102100
    20  C          0.26698000       0.87264840       0.89897900
    21  H          0.74920000       0.04560000       0.05500000
    22  H          0.25080000       0.95440000       0.94500000
    23  N          0.75733130       0.28384110       0.33898600
    24  N          0.24266870       0.71615890       0.66101400
    25  C          0.58760150       0.53551130       0.18010700
    26  C          0.41239850       0.46448870       0.81989300
    27  C          0.65504140       0.36749130       0.16186700
    28  C          0.34495860       0.63250870       0.83813300
    29  C          0.69754140       0.44423130       0.36301700
    30  C          0.30245860       0.55576870       0.63698300
    31  C          0.73602140       0.24821120       0.23856700
    32  C          0.26397860       0.75178880       0.76143300
    33  C          0.82922000       0.15116160       0.42266900
    34  C          0.17078000       0.84883840       0.57733100
    35  H          0.73010000       0.09220000       0.45650000
    36  H          0.26990000       0.90780000       0.54350000
    37  H          0.88360000       0.20180000       0.47460000
    38  H          0.11640000       0.79820000       0.52540000
    39  H          0.92110000       0.07240000       0.39170000
    40  H          0.07890000       0.92760000       0.60830000
    41  H          0.59620000       0.32320000       0.00911400
    42  H          0.40380000       0.67680000      -0.00911400
    43  O         -0.00583850       0.19833120       0.74189700
    44  O          0.00583850       0.80166880       0.25810300
    45  O          0.05076160       0.24907130       0.90311700
    46  O          0.94923840       0.75092870       0.09688300
    47  O          0.76784170       0.86202130       0.90822800
    48  O          0.23215830       0.13797870       0.09177200
    49  O          0.68782160       0.75374120       0.56138700
    50  O          0.31217840       0.24625880       0.43861300
    51  C          0.79093170       0.74897140       0.83663900
    52  C          0.20906830       0.25102860       0.16336100
    53  C          0.73117170       0.80505140       0.73456900
    54  C          0.26882830       0.19494860       0.26543100
    55  H          0.67820000       0.91680000       0.71680000
    56  H          0.32180000       0.08320000       0.28320000
    57  C         -0.01448840       0.29693140       0.81689800
    58  C          0.01448840       0.70306860       0.18310200
    59  C          0.89297140       0.47269130       0.78679800
    60  C          0.10702860       0.52730870       0.21320200
    61  C          0.87058160       0.58248140       0.86350800
    62  C          0.12941840       0.41751860       0.13649200
    63  H          0.90860000       0.54470000       0.93210000
    64  H          0.09140000       0.45530000       0.06790000
    65  C          0.75102160       0.69332140       0.65957800
    66  C          0.24897840       0.30667860       0.34042200
    67  C          0.83403140       0.52653130       0.68440800
    68  C          0.16596860       0.47346870       0.31559200
    69  H          0.84970000       0.45270000       0.63340000
    70  H          0.15030000       0.54730000       0.36660000
    71  H          0.06730000       0.09530000       0.76661800
    72  H          0.93270000       0.90470000       0.23338200
    73  H          0.70330000       0.66540000       0.52320000
    74  H          0.29670000       0.33460000       0.47680000
    75  H          0.81730000       0.82130000       0.97320000
    76  H          0.18270000       0.17870000       0.02680000
