data_WOCVIT
_symmetry_space_group_name_H-M    'P1'
_symmetry_Int_Tables_number       1
loop_
_symmetry_equiv_pos_site_id
_symmetry_equiv_pos_as_xyz
1 x,y,z
_cell_length_a                   4.8603
_cell_length_b                   32.5434
_cell_length_c                   8.5383
_cell_angle_alpha                90.0
_cell_angle_beta                 94.794
_cell_angle_gamma                90.0
loop_
_atom_site_label
_atom_site_type_symbol
_atom_site_fract_x
_atom_site_fract_y
_atom_site_fract_z
     1  O          0.35503000       0.04485400       0.01932000
     2  O          0.64497000       0.54485400       0.48068000
     3  O          0.64497000       0.95514600       0.98068000
     4  O          0.35503000       0.45514600       0.51932000
     5  O          0.26613000       0.98711600       0.14872000
     6  O          0.73387000       0.48711600       0.35128000
     7  O          0.73387000       0.01288400       0.85128000
     8  O          0.26613000       0.51288400       0.64872000
     9  N          0.52966000       0.11097600       0.50622000
    10  N          0.47034000       0.61097600      -0.00622000
    11  N          0.47034000       0.88902400       0.49378000
    12  N          0.52966000       0.38902400       0.00622000
    13  C          0.03954000       0.04765500       0.21812000
    14  C          0.96046000       0.54765500       0.28188000
    15  C          0.96046000       0.95234500       0.78188000
    16  C          0.03954000       0.45234500       0.71812000
    17  C          0.00824000       0.09006500       0.20652000
    18  C         -0.00824000       0.59006500       0.29348000
    19  C         -0.00824000       0.90993500       0.79348000
    20  C          0.00824000       0.40993500       0.70652000
    21  C          0.83626000       0.11087500       0.29832000
    22  C          0.16374000       0.61087500       0.20168000
    23  C          0.16374000       0.88912500       0.70168000
    24  C          0.83626000       0.38912500       0.79832000
    25  C          0.68936000       0.08980600       0.40722000
    26  C          0.31064000       0.58980600       0.09278000
    27  C          0.31064000       0.91019400       0.59278000
    28  C          0.68936000       0.41019400       0.90722000
    29  C          0.72026000       0.04707600       0.41892000
    30  C          0.27974000       0.54707600       0.08108000
    31  C          0.27974000       0.95292400       0.58108000
    32  C          0.72026000       0.45292400       0.91892000
    33  C          0.89116000       0.02650500       0.32472000
    34  C          0.10884000       0.52650500       0.17528000
    35  C          0.10884000       0.97349500       0.67528000
    36  C          0.89116000       0.47349500       0.82472000
    37  C          0.23184000       0.02670600       0.12032000
    38  C          0.76816000       0.52670600       0.37968000
    39  C          0.76816000       0.97329400       0.87968000
    40  C          0.23184000       0.47329400       0.62032000
    41  H          0.10720000       0.10480000       0.13340000
    42  H          0.89280000       0.60480000       0.36660000
    43  H          0.89280000       0.89520000       0.86660000
    44  H          0.10720000       0.39520000       0.63340000
    45  H          0.39050000       0.97414000       0.09120000
    46  H          0.60950000       0.47414000       0.40880000
    47  H          0.60950000       0.02586000       0.90880000
    48  H          0.39050000       0.52586000       0.59120000
    49  H          0.81680000       0.13980000       0.28810000
    50  H          0.18320000       0.63980000       0.21190000
    51  H          0.18320000       0.86020000       0.71190000
    52  H          0.81680000       0.36020000       0.78810000
    53  H          0.62260000       0.03219000       0.49240000
    54  H          0.37740000       0.53219000       0.00760000
    55  H          0.37740000       0.96781000       0.50760000
    56  H          0.62260000       0.46781000      -0.00760000
    57  H          0.90790000      -0.00250000       0.33270000
    58  H          0.09210000       0.49750000       0.16730000
    59  H          0.09210000       0.00250000       0.66730000
    60  H          0.90790000       0.50250000       0.83270000
    61  H          0.49960000       0.14066000       0.48120000
    62  H          0.50040000       0.64066000       0.01880000
    63  H          0.50040000       0.85934000       0.51880000
    64  H          0.49960000       0.35934000       0.98120000
    65  H          0.42560000       0.09536000       0.56220000
    66  H          0.57440000       0.59536000       0.93780000
    67  H          0.57440000       0.90464000       0.43780000
    68  H          0.42560000       0.40464000       0.06220000
    69  N          0.08885000       0.10283700       0.76787000
    70  N          0.91115000       0.60283700       0.73213000
    71  N          0.91115000       0.89716300       0.23213000
    72  N          0.08885000       0.39716300       0.26787000
    73  N          0.55196000       0.29556600       0.89977000
    74  N          0.44804000       0.79556600       0.60023000
    75  N          0.44804000       0.70443400       0.10023000
    76  N          0.55196000       0.20443400       0.39977000
    77  C          0.37375000       0.22182700       0.85607000
    78  C          0.62625000       0.72182700       0.64393000
    79  C          0.62625000       0.77817300       0.14393000
    80  C          0.37375000       0.27817300       0.35607000
    81  C          0.15855000       0.21454700       0.74327000
    82  C          0.84145000       0.71454700       0.75673000
    83  C          0.84145000       0.78545300       0.25673000
    84  C          0.15855000       0.28545300       0.24327000
    85  C          0.06155000       0.17520600       0.71588000
    86  C          0.93845000       0.67520600       0.78412000
    87  C          0.93845000       0.82479400       0.28412000
    88  C          0.06155000       0.32479400       0.21588000
    89  C          0.17764000       0.14211600       0.79918000
    90  C          0.82236000       0.64211600       0.70082000
    91  C          0.82236000       0.85788400       0.20082000
    92  C          0.17764000       0.35788400       0.29918000
    93  C          0.39765000       0.14955600       0.91128000
    94  C          0.60235000       0.64955600       0.58872000
    95  C          0.60235000       0.85044400       0.08872000
    96  C          0.39765000       0.35044400       0.41128000
    97  C          0.49345000       0.18879700       0.93908000
    98  C          0.50655000       0.68879700       0.56092000
    99  C          0.50655000       0.81120300       0.06092000
   100  C          0.49345000       0.31120300       0.43908000
   101  C          0.47466000       0.26314700       0.88107000
   102  C          0.52534000       0.76314700       0.61893000
   103  C          0.52534000       0.73685300       0.11893000
   104  C          0.47466000       0.23685300       0.38107000
   105  H          0.07720000       0.23680000       0.68420000
   106  H          0.92280000       0.73680000       0.81580000
   107  H          0.92280000       0.76320000       0.31580000
   108  H          0.07720000       0.26320000       0.18420000
   109  H          0.91230000       0.17070000       0.63870000
   110  H          0.08770000       0.67070000       0.86130000
   111  H          0.08770000       0.82930000       0.36130000
   112  H          0.91230000       0.32930000       0.13870000
   113  H          0.48150000       0.12730000       0.96900000
   114  H          0.51850000       0.62730000       0.53100000
   115  H          0.51850000       0.87270000       0.03100000
   116  H          0.48150000       0.37270000       0.46900000
   117  H          0.64330000       0.19340000       0.01590000
   118  H          0.35670000       0.69340000       0.48410000
   119  H          0.35670000       0.80660000      -0.01590000
   120  H          0.64330000       0.30660000       0.51590000
   121  H          0.13450000       0.08036000       0.83780000
   122  H          0.86550000       0.58036000       0.66220000
   123  H          0.86550000       0.91964000       0.16220000
   124  H          0.13450000       0.41964000       0.33780000
   125  H          0.94260000       0.09816000       0.72380000
   126  H          0.05740000       0.59816000       0.77620000
   127  H          0.05740000       0.90184000       0.27620000
   128  H          0.94260000       0.40184000       0.22380000
