data_WOGGAA
_symmetry_space_group_name_H-M    'P1'
_symmetry_Int_Tables_number       1
loop_
_symmetry_equiv_pos_site_id
_symmetry_equiv_pos_as_xyz
1 x,y,z
_cell_length_a                   7.50786
_cell_length_b                   10.77489
_cell_length_c                   11.35849
_cell_angle_alpha                89.3812
_cell_angle_beta                 72.0552
_cell_angle_gamma                79.2522
loop_
_atom_site_label
_atom_site_type_symbol
_atom_site_fract_x
_atom_site_fract_y
_atom_site_fract_z
     1  P          0.48582140       0.16897900       0.77587100
     2  P          0.51417860       0.83102100       0.22412900
     3  F          0.47593000       0.24862000       0.89662000
     4  F          0.52407000       0.75138000       0.10338000
     5  F          0.49684000       0.08992000       0.65492000
     6  F          0.50316000       0.91008000       0.34508000
     7  F          0.32084000       0.09943000       0.85583000
     8  F          0.67916000       0.90057000       0.14417000
     9  F          0.32834000       0.27712000       0.75223000
    10  F          0.67166000       0.72288000       0.24777000
    11  F          0.63984000       0.05922000       0.80253000
    12  F          0.36016000       0.94078000       0.19747000
    13  F          0.65114000       0.23773000       0.69783000
    14  F          0.34886000       0.76227000       0.30217000
    15  C          0.09395000       0.80264000       0.70854000
    16  C          0.90605000       0.19736000       0.29146000
    17  C          0.19955000       0.69234000       0.64033000
    18  C          0.80045000       0.30766000       0.35967000
    19  H          0.28475000       0.69764000       0.55973000
    20  H          0.71525000       0.30236000       0.44027000
    21  C          0.18225000       0.57464000       0.68824000
    22  C          0.81775000       0.42536000       0.31176000
    23  H          0.25725000       0.50034000       0.64084000
    24  H          0.74275000       0.49966000       0.35916000
    25  C          0.05635000       0.56494000       0.80444000
    26  C          0.94365000       0.43506000       0.19556000
    27  H          0.04415000       0.48424000       0.83704000
    28  H          0.95585000       0.51576000       0.16296000
    29  C          0.94865000       0.67334000       0.87264000
    30  C          0.05135000       0.32666000       0.12736000
    31  H          0.86145000       0.66714000       0.95234000
    32  H          0.13855000       0.33286000       0.04766000
    33  C          0.96645000       0.79194000       0.82594000
    34  C          0.03355000       0.20806000       0.17406000
    35  H          0.89165000       0.86594000       0.87394000
    36  H          0.10835000       0.13406000       0.12606000
    37  C          0.11596000       0.93124000       0.65794000
    38  C          0.88404000       0.06876000       0.34206000
    39  H          0.99111000       0.97891100       0.65802500
    40  H          0.00889000       0.02108900       0.34197500
    41  H          0.20363200       0.92074000       0.57291000
    42  H          0.79636800       0.07926000       0.42709000
    43  H          0.16723900       0.97721100       0.70991600
    44  H          0.83276100       0.02278900       0.29008400
    45  C          0.26635000       0.33613000       0.39043000
    46  C          0.73365000       0.66387000       0.60957000
    47  C          0.36495000       0.21993000       0.32713000
    48  C          0.63505000       0.78007000       0.67287000
    49  H          0.33995000       0.14263000       0.36343000
    50  H          0.66005000       0.85737000       0.63657000
    51  C          0.49655000       0.21903000       0.21333000
    52  C          0.50345000       0.78097000       0.78667000
    53  H          0.56325000       0.14133000       0.16893000
    54  H          0.43675000       0.85867000       0.83107000
    55  C          0.53265000       0.33703000       0.16183000
    56  C          0.46735000       0.66297000       0.83817000
    57  C          0.43245000       0.45343000       0.22573000
    58  C          0.56755000       0.54657000       0.77427000
    59  H          0.45635000       0.53103000       0.18983000
    60  H          0.54365000       0.46897000       0.81017000
    61  C          0.30225000       0.45283000       0.33833000
    62  C          0.69775000       0.54717000       0.66167000
    63  H          0.23465000       0.53033000       0.38263000
    64  H          0.76535000       0.46967000       0.61737000
    65  C          0.09594000       0.23234000       0.56414000
    66  C          0.90406000       0.76766000       0.43586000
    67  H         -0.00002900       0.25514000       0.64531100
    68  H          0.00002900       0.74486000       0.35468900
    69  H          0.21279000       0.18281300       0.57502300
    70  H          0.78721000       0.81718700       0.42497700
    71  H          0.04686300       0.18191300       0.51431300
    72  H          0.95313700       0.81808700       0.48568700
    73  N          0.66716000       0.32993000       0.04963000
    74  N          0.33284000       0.67007000       0.95037000
    75  O          0.71486000       0.41743000      -0.01208000
    76  O          0.28514000       0.58257000       0.01208000
    77  O          0.13776000       0.34672000       0.50122000
    78  O          0.86224000       0.65328000       0.49878000
    79  N          0.82635000       0.17444000       0.96373000
    80  N          0.17365000       0.82556000       0.03627000
    81  O          0.91326000       0.21343000       0.87783000
    82  O          0.08674000       0.78657000       0.12217000
