data_WOHSUI
_symmetry_space_group_name_H-M    'P1'
_symmetry_Int_Tables_number       1
loop_
_symmetry_equiv_pos_site_id
_symmetry_equiv_pos_as_xyz
1 x,y,z
_cell_length_a                   15.835018
_cell_length_b                   9.5202
_cell_length_c                   28.4615
_cell_angle_alpha                90.0
_cell_angle_beta                 102.4367
_cell_angle_gamma                90.0
loop_
_atom_site_label
_atom_site_type_symbol
_atom_site_fract_x
_atom_site_fract_y
_atom_site_fract_z
     1  I          0.11510200      -0.00339400       0.20672511
     2  I          0.61510200       0.49660600       0.20672511
     3  I          0.88489800      -0.00339400       0.29327489
     4  I          0.38489800       0.49660600       0.29327489
     5  I          0.88489800       0.00339400       0.79327489
     6  I          0.38489800       0.50339400       0.79327489
     7  I          0.11510200       0.00339400       0.70672511
     8  I          0.61510200       0.50339400       0.70672511
     9  I          0.14100200       0.69643600       0.22736312
    10  I          0.64100200       0.19643600       0.22736312
    11  I          0.85899800       0.69643600       0.27263688
    12  I          0.35899800       0.19643600       0.27263688
    13  I          0.85899800       0.30356400       0.77263688
    14  I          0.35899800       0.80356400       0.77263688
    15  I          0.14100200       0.30356400       0.72736312
    16  I          0.64100200       0.80356400       0.72736312
    17  S          0.09747800       0.26966140       0.19478500
    18  S          0.59747800       0.76966140       0.19478500
    19  S          0.90252200       0.26966140       0.30521500
    20  S          0.40252200       0.76966140       0.30521500
    21  S          0.90252200       0.73033860       0.80521500
    22  S          0.40252200       0.23033860       0.80521500
    23  S          0.09747800       0.73033860       0.69478500
    24  S          0.59747800       0.23033860       0.69478500
    25  S          0.94400100       0.45652140       0.18071500
    26  S          0.44400100       0.95652140       0.18071500
    27  S          0.05599900       0.45652140       0.31928500
    28  S          0.55599900       0.95652140       0.31928500
    29  S          0.05599900       0.54347860       0.81928500
    30  S          0.55599900       0.04347860       0.81928500
    31  S          0.94400100       0.54347860       0.68071500
    32  S          0.44400100       0.04347860       0.68071500
    33  N          0.92898000       0.18355000       0.17887140
    34  N          0.42898000       0.68355000       0.17887140
    35  N          0.07102000       0.18355000       0.32112860
    36  N          0.57102000       0.68355000       0.32112860
    37  N          0.07102000       0.81645000       0.82112860
    38  N          0.57102000       0.31645000       0.82112860
    39  N          0.92898000       0.81645000       0.67887140
    40  N          0.42898000       0.31645000       0.67887140
    41  C          0.98797000       0.29015000       0.18468160
    42  C          0.48797000       0.79015000       0.18468160
    43  C          0.01203000       0.29015000       0.31531840
    44  C          0.51203000       0.79015000       0.31531840
    45  C          0.01203000       0.70985000       0.81531840
    46  C          0.51203000       0.20985000       0.81531840
    47  C          0.98797000       0.70985000       0.68468160
    48  C          0.48797000       0.20985000       0.68468160
    49  C          0.83826000       0.23536000       0.16432000
    50  C          0.33826000       0.73536000       0.16432000
    51  C          0.16174000       0.23536000       0.33568000
    52  C          0.66174000       0.73536000       0.33568000
    53  C          0.16174000       0.76464000       0.83568000
    54  C          0.66174000       0.26464000       0.83568000
    55  C          0.83826000       0.76464000       0.66432000
    56  C          0.33826000       0.26464000       0.66432000
    57  C          0.83636000       0.38916000       0.17872000
    58  C          0.33636000       0.88916000       0.17872000
    59  C          0.16364000       0.38916000       0.32128000
    60  C          0.66364000       0.88916000       0.32128000
    61  C          0.16364000       0.61084000       0.82128000
    62  C          0.66364000       0.11084000       0.82128000
    63  C          0.83636000       0.61084000       0.67872000
    64  C          0.33636000       0.11084000       0.67872000
    65  H          0.80550000       0.18890000       0.18230000
    66  H          0.30550000       0.68890000       0.18230000
    67  H          0.19450000       0.18890000       0.31770000
    68  H          0.69450000       0.68890000       0.31770000
    69  H          0.19450000       0.81110000       0.81770000
    70  H          0.69450000       0.31110000       0.81770000
    71  H          0.80550000       0.81110000       0.68230000
    72  H          0.30550000       0.31110000       0.68230000
    73  H          0.81560000       0.22170000       0.12720000
    74  H          0.31560000       0.72170000       0.12720000
    75  H          0.18440000       0.22170000       0.37280000
    76  H          0.68440000       0.72170000       0.37280000
    77  H          0.18440000       0.77830000       0.87280000
    78  H          0.68440000       0.27830000       0.87280000
    79  H          0.81560000       0.77830000       0.62720000
    80  H          0.31560000       0.27830000       0.62720000
    81  H          0.80150000       0.44180000       0.15330000
    82  H          0.30150000       0.94180000       0.15330000
    83  H          0.19850000       0.44180000       0.34670000
    84  H          0.69850000       0.94180000       0.34670000
    85  H          0.19850000       0.55820000       0.84670000
    86  H          0.69850000       0.05820000       0.84670000
    87  H          0.80150000       0.55820000       0.65330000
    88  H          0.30150000       0.05820000       0.65330000
    89  H          0.82360000       0.40760000       0.21220000
    90  H          0.32360000       0.90760000       0.21220000
    91  H          0.17640000       0.40760000       0.28780000
    92  H          0.67640000       0.90760000       0.28780000
    93  H          0.17640000       0.59240000       0.78780000
    94  H          0.67640000       0.09240000       0.78780000
    95  H          0.82360000       0.59240000       0.71220000
    96  H          0.32360000       0.09240000       0.71220000
    97  H          0.93980000       0.10880000       0.17800000
    98  H          0.43980000       0.60880000       0.17800000
    99  H          0.06020000       0.10880000       0.32200000
   100  H          0.56020000       0.60880000       0.32200000
   101  H          0.06020000       0.89120000       0.82200000
   102  H          0.56020000       0.39120000       0.82200000
   103  H          0.93980000       0.89120000       0.67800000
   104  H          0.43980000       0.39120000       0.67800000
   105  I          0.56670800       0.62820300       0.05415810
   106  I          0.06670800       0.12820300       0.05415810
   107  I          0.43329200       0.62820300       0.44584190
   108  I          0.93329200       0.12820300       0.44584190
   109  I          0.43329200       0.37179700       0.94584190
   110  I          0.93329200       0.87179700       0.94584190
   111  I          0.56670800       0.37179700       0.55415810
   112  I          0.06670800       0.87179700       0.55415810
   113  I          0.71073800       0.43621300       0.04617212
   114  I          0.21073800       0.93621300       0.04617212
   115  I          0.28926200       0.43621300       0.45382788
   116  I          0.78926200       0.93621300       0.45382788
   117  I          0.28926200       0.56378700       0.95382788
   118  I          0.78926200       0.06378700       0.95382788
   119  I          0.71073800       0.56378700       0.54617212
   120  I          0.21073800       0.06378700       0.54617212
   121  S          0.43771200       0.79632130       0.05267500
   122  S          0.93771200       0.29632130       0.05267500
   123  S          0.56228800       0.79632130       0.44732500
   124  S          0.06228800       0.29632130       0.44732500
   125  S          0.56228800       0.20367870       0.94732500
   126  S          0.06228800       0.70367870       0.94732500
   127  S          0.43771200       0.20367870       0.55267500
   128  S          0.93771200       0.70367870       0.55267500
   129  S          0.43074200       0.10703130       0.05238500
   130  S          0.93074200       0.60703130       0.05238500
   131  S          0.56925800       0.10703130       0.44761500
   132  S          0.06925800       0.60703130       0.44761500
   133  S          0.56925800       0.89296870       0.94761500
   134  S          0.06925800       0.39296870       0.94761500
   135  S          0.43074200       0.89296870       0.55238500
   136  S          0.93074200       0.39296870       0.55238500
   137  N          0.57097000       0.97375000       0.08434160
   138  N          0.07097000       0.47375000       0.08434160
   139  N          0.42903000       0.97375000       0.41565840
   140  N          0.92903000       0.47375000       0.41565840
   141  N          0.42903000       0.02625000       0.91565840
   142  N          0.92903000       0.52625000       0.91565840
   143  N          0.57097000       0.02625000       0.58434160
   144  N          0.07097000       0.52625000       0.58434160
   145  C          0.48857000       0.95315000       0.06549150
   146  C          0.98857000       0.45315000       0.06549150
   147  C          0.51143000       0.95315000       0.43450850
   148  C          0.01143000       0.45315000       0.43450850
   149  C          0.51143000       0.04685000       0.93450850
   150  C          0.01143000       0.54685000       0.93450850
   151  C          0.48857000       0.04685000       0.56549150
   152  C          0.98857000       0.54685000       0.56549150
   153  C          0.52177000       0.20976000       0.08452000
   154  C          0.02177000       0.70976000       0.08452000
   155  C          0.47823000       0.20976000       0.41548000
   156  C          0.97823000       0.70976000       0.41548000
   157  C          0.47823000       0.79024000       0.91548000
   158  C          0.97823000       0.29024000       0.91548000
   159  C          0.52177000       0.79024000       0.58452000
   160  C          0.02177000       0.29024000       0.58452000
   161  C          0.60137000       0.12045000       0.08642000
   162  C          0.10137000       0.62045000       0.08642000
   163  C          0.39863000       0.12045000       0.41358000
   164  C          0.89863000       0.62045000       0.41358000
   165  C          0.39863000       0.87955000       0.91358000
   166  C          0.89863000       0.37955000       0.91358000
   167  C          0.60137000       0.87955000       0.58642000
   168  C          0.10137000       0.37955000       0.58642000
   169  H          0.60160000       0.90970000       0.09320000
   170  H          0.10160000       0.40970000       0.09320000
   171  H          0.39840000       0.90970000       0.40680000
   172  H          0.89840000       0.40970000       0.40680000
   173  H          0.39840000       0.09030000       0.90680000
   174  H          0.89840000       0.59030000       0.90680000
   175  H          0.60160000       0.09030000       0.59320000
   176  H          0.10160000       0.59030000       0.59320000
   177  H          0.51370000       0.23050000       0.11771800
   178  H          0.01370000       0.73050000       0.11771800
   179  H          0.48630000       0.23050000       0.38228200
   180  H          0.98630000       0.73050000       0.38228200
   181  H          0.48630000       0.76950000       0.88228200
   182  H          0.98630000       0.26950000       0.88228200
   183  H          0.51370000       0.76950000       0.61771800
   184  H          0.01370000       0.26950000       0.61771800
   185  H          0.52450000       0.28880000       0.07430000
   186  H          0.02450000       0.78880000       0.07430000
   187  H          0.47550000       0.28880000       0.42570000
   188  H          0.97550000       0.78880000       0.42570000
   189  H          0.47550000       0.71120000       0.92570000
   190  H          0.97550000       0.21120000       0.92570000
   191  H          0.52450000       0.71120000       0.57430000
   192  H          0.02450000       0.21120000       0.57430000
   193  H          0.64470000       0.12850000       0.11681900
   194  H          0.14470000       0.62850000       0.11681900
   195  H          0.35530000       0.12850000       0.38318100
   196  H          0.85530000       0.62850000       0.38318100
   197  H          0.35530000       0.87150000       0.88318100
   198  H          0.85530000       0.37150000       0.88318100
   199  H          0.64470000       0.87150000       0.61681900
   200  H          0.14470000       0.37150000       0.61681900
   201  H          0.62660000       0.13260000       0.06620000
   202  H          0.12660000       0.63260000       0.06620000
   203  H          0.37340000       0.13260000       0.43380000
   204  H          0.87340000       0.63260000       0.43380000
   205  H          0.37340000       0.86740000       0.93380000
   206  H          0.87340000       0.36740000       0.93380000
   207  H          0.62660000       0.86740000       0.56620000
   208  H          0.12660000       0.36740000       0.56620000
   209  I          0.80271800       0.92998400       0.06084512
   210  I          0.30271800       0.42998400       0.06084512
   211  I          0.19728200       0.92998400       0.43915488
   212  I          0.69728200       0.42998400       0.43915488
   213  I          0.19728200       0.07001600       0.93915488
   214  I          0.69728200       0.57001600       0.93915488
   215  I          0.80271800       0.07001600       0.56084512
   216  I          0.30271800       0.57001600       0.56084512
   217  I          0.82201700       0.81842400       0.15268713
   218  I          0.32201700       0.31842400       0.15268713
   219  I          0.17798300       0.81842400       0.34731287
   220  I          0.67798300       0.31842400       0.34731287
   221  I          0.17798300       0.18157600       0.84731287
   222  I          0.67798300       0.68157600       0.84731287
   223  I          0.82201700       0.18157600       0.65268713
   224  I          0.32201700       0.68157600       0.65268713
