data_WOJQUH
_symmetry_space_group_name_H-M    'P1'
_symmetry_Int_Tables_number       1
loop_
_symmetry_equiv_pos_site_id
_symmetry_equiv_pos_as_xyz
1 x,y,z
_cell_length_a                   7.8212
_cell_length_b                   7.9303
_cell_length_c                   10.6434
_cell_angle_alpha                87.833
_cell_angle_beta                 75.103
_cell_angle_gamma                62.083
loop_
_atom_site_label
_atom_site_type_symbol
_atom_site_fract_x
_atom_site_fract_y
_atom_site_fract_z
     1  I          0.50000000       0.50000000       0.50000000
     2  I          0.62291000       0.61281000       0.24271000
     3  I          0.37709000       0.38719000       0.75729000
     4  I          0.58841000       0.22751000       0.09411000
     5  I          0.41159000       0.77249000       0.90589000
     6  I          0.87191000       0.77769000       0.91129000
     7  I          0.12809000       0.22231000       0.08871000
     8  C          0.58251500       0.00141500       0.00071000
     9  C          0.41748500      -0.00141500      -0.00071000
    10  N          0.92198300       0.40722000       0.65161100
    11  N          0.07801700       0.59278000       0.34838900
    12  C          0.02391600       0.40591600       0.53071000
    13  C          0.97608400       0.59408400       0.46929000
    14  C          0.16951900       0.24151700       0.46081200
    15  C          0.83048100       0.75848300       0.53918800
    16  C          0.20703100       0.07772100       0.51421900
    17  C          0.79296900       0.92227900       0.48578100
    18  C          0.11693400       0.07502900       0.63222400
    19  C          0.88306600       0.92497100       0.36777600
    20  C          0.97266700       0.22693800       0.70511700
    21  C          0.02733300       0.77306200       0.29488300
    22  H          0.24470000       0.24220000       0.37410000
    23  H          0.75530000       0.75780000       0.62590000
    24  H          0.30360000       0.95830000       0.46300000
    25  H          0.69640000       0.04170000       0.53700000
    26  H          0.15840000       0.95470000       0.66960000
    27  H          0.84160000       0.04530000       0.33040000
    28  H          0.90110000       0.22050000       0.79160000
    29  H          0.09890000       0.77950000       0.20840000
