data_WOJTOI
_symmetry_space_group_name_H-M    'P1'
_symmetry_Int_Tables_number       1
loop_
_symmetry_equiv_pos_site_id
_symmetry_equiv_pos_as_xyz
1 x,y,z
_cell_length_a                   11.20202
_cell_length_b                   11.35542
_cell_length_c                   18.87134
_cell_angle_alpha                103.795218
_cell_angle_beta                 102.269618
_cell_angle_gamma                93.484116
loop_
_atom_site_label
_atom_site_type_symbol
_atom_site_fract_x
_atom_site_fract_y
_atom_site_fract_z
     1  Br         0.13830300       0.35201400       0.59007200
     2  Br         0.86169700       0.64798600       0.40992800
     3  O          0.54692000       0.34272000       0.41547120
     4  O          0.45308000       0.65728000       0.58452880
     5  O          0.44712000       0.32152000       0.55376130
     6  O          0.55288000       0.67848000       0.44623870
     7  O          0.38802000       0.17702000       0.20241140
     8  O          0.61198000       0.82298000       0.79758860
     9  N          0.30263000       0.17542000       0.46983150
    10  N          0.69737000       0.82458000       0.53016850
    11  N          0.20693000       0.15583000       0.40724160
    12  N          0.79307000       0.84417000       0.59275840
    13  N          0.40713000       0.32033000       0.13625160
    14  N          0.59287000       0.67967000       0.86374840
    15  C          0.35253000       0.37063000       0.43967170
    16  C          0.64747000       0.62937000       0.56032830
    17  H          0.38089100       0.45480500       0.46709500
    18  H          0.61910900       0.54519500       0.53290500
    19  H          0.26491900       0.36497600       0.41823200
    20  H          0.73508100       0.63502400       0.58176800
    21  C          0.63523000       0.34033000       0.37640180
    22  C          0.36477000       0.65967000       0.62359820
    23  C          0.60903000       0.35263000       0.30525170
    24  C          0.39097000       0.64737000       0.69474830
    25  C          0.37393000       0.29023000       0.49344170
    26  C          0.62607000       0.70977000       0.50655830
    27  C          0.75623000       0.33273000       0.42459180
    28  C          0.24377000       0.66727000       0.57540820
    29  C          0.42063000       0.27973000       0.19976170
    30  C          0.57937000       0.72027000       0.80023830
    31  C          0.98223000       0.34103000       0.52272000
    32  C          0.01777000       0.65897000       0.47728000
    33  C          0.40763000       0.42273000       0.32657170
    34  C          0.59237000       0.57727000       0.67342830
    35  H          0.44518300       0.50294600       0.35895700
    36  H          0.55481700       0.49705400       0.64104300
    37  C          0.29683000       0.08373000       0.50713180
    38  C          0.70317000       0.91627000       0.49286820
    39  C          0.41903000       0.33453000       0.37652170
    40  C          0.58097000       0.66547000       0.62347830
    41  H          0.38879400       0.25079600       0.34656900
    42  H          0.61120600       0.74920400       0.65343100
    43  C          0.48623000       0.38663000       0.26795170
    44  C          0.51377000       0.61337000       0.73204830
    45  C          0.27593000       0.43773000       0.29122170
    46  C          0.72407000       0.56227000       0.70877830
    47  C          0.38523000       0.06823000       0.57337180
    48  C          0.61477000       0.93177000       0.42662820
    49  N          0.75403000       0.31894000       0.21466190
    50  N          0.24597000       0.68106000       0.78533810
    51  C          0.51253000       0.09673000       0.58582000
    52  C          0.48747000       0.90327000       0.41418000
    53  H          0.54412100       0.13324200       0.55351900
    54  H          0.45587900       0.86675800       0.44648100
    55  C          0.76413000       0.33333000       0.49933190
    56  C          0.23587000       0.66667000       0.50066810
    57  H          0.69241400       0.32982100       0.51651500
    58  H          0.30758600       0.67017900       0.48348500
    59  C          0.87673000       0.33913000       0.54872000
    60  C          0.12327000       0.66087000       0.45128000
    61  H          0.88065100       0.34157100       0.59873300
    62  H          0.11934900       0.65842900       0.40126700
    63  C          0.14133000       0.05393000       0.40525190
    64  C          0.85867000       0.94607000       0.59474810
    65  C          0.19423000       0.00583000       0.46652000
    66  C          0.80577000      -0.00583000       0.53348000
    67  H          0.16463700       0.93499800       0.47683600
    68  H          0.83536300       0.06500200       0.52316400
    69  C          0.43974000       0.19483000       0.01562000
    70  C          0.56026000       0.80517000       0.98438000
    71  C          0.50253000       0.48763000       0.23032000
    72  C          0.49747000       0.51237000       0.76968000
    73  C          0.18123000       0.34223000       0.26842190
    74  C          0.81877000       0.65777000       0.73157810
    75  H          0.19774900       0.26492100       0.27339800
    76  H          0.80225100       0.73507900       0.72660200
    77  C          0.69433000       0.33594000       0.25821190
    78  C          0.30567000       0.66406000       0.74178810
    79  C          0.24884000       0.55213000       0.28122000
    80  C          0.75116000       0.44787000       0.71878000
    81  H          0.31127200       0.61687400       0.29560800
    82  H          0.68872800       0.38312600       0.70439200
    83  C          0.59224000       0.07083000       0.64612000
    84  C          0.40776000       0.92917000       0.35388000
    85  H          0.67652100       0.09229500       0.65470500
    86  H          0.32347900       0.90770500       0.34529500
    87  C          0.03093000       0.00383000       0.34482000
    88  C          0.96907000      -0.00383000       0.65518000
    89  C          0.98056000       0.88337000       0.33132000
    90  C          0.01944000       0.11663000       0.66868000
    91  H          0.01641600       0.83464400       0.36116400
    92  H          0.98358400       0.16535600       0.63883600
    93  C          0.42074000       0.98257000       0.68082000
    94  C          0.57926000       0.01743000       0.31918000
    95  H          0.38972800       0.94297600       0.71201100
    96  H          0.61027200       0.05702400       0.28798900
    97  C          0.34004000       0.01083000       0.62152000
    98  C          0.65996000      -0.01083000       0.37848000
    99  H          0.25562900      -0.00870700       0.61412100
   100  H          0.74437100       0.00870700       0.38587900
   101  C          0.39524000       0.09513000       0.95228000
   102  C          0.60476000       0.90487000       0.04772000
   103  H          0.31285600       0.06283900       0.93970900
   104  H          0.68714400       0.93716100       0.06029100
   105  C          0.54584000       0.01274000       0.69362000
   106  C          0.45416000      -0.01274000       0.30638000
   107  H          0.59892600      -0.00558500       0.73354800
   108  H          0.40107400       0.00558500       0.26645200
   109  C          0.97804000       0.33845000       0.44922000
   110  C          0.02196000       0.66155000       0.55078000
   111  H          0.05004100       0.33922500       0.43221900
   112  H          0.94995900       0.66077500       0.56778100
   113  C          0.55244000       0.60763000       0.26172000
   114  C          0.44756000       0.39237000       0.73828000
   115  H          0.58794700       0.63623300       0.31273300
   116  H          0.41205300       0.36376700       0.68726700
   117  C          0.34774000       0.23884000       0.06242000
   118  C          0.65226000       0.76116000       0.93758000
   119  H          0.31528900       0.16503400       0.07378300
   120  H          0.68471100       0.83496600       0.92621700
   121  C          0.45315000       0.44464000       0.15362000
   122  C          0.54685000       0.55536000       0.84638000
   123  C          0.47375000       0.04544000       0.90898000
   124  C          0.52625000       0.95456000       0.09102000
   125  H          0.44355800       0.98029900       0.86700400
   126  H          0.55644200       0.01970100       0.13299600
   127  C          0.87026000       0.02864000       0.24352000
   128  C          0.12974000       0.97136000       0.75648000
   129  H          0.83343000       0.07790400       0.21431600
   130  H          0.16657000       0.92209600       0.78568400
   131  C          0.87746000       0.83536000       0.27362000
   132  C          0.12254000       0.16464000       0.72638000
   133  H          0.84577500       0.75415200       0.26436800
   134  H          0.15422500       0.24584800       0.73563200
   135  C          0.97356000       0.07614000       0.30062000
   136  C          0.02644000       0.92386000       0.69938000
   137  H          0.00541200       0.15725800       0.30970700
   138  H         -0.00541200       0.84274200       0.69029300
   139  C          0.06084000       0.36174000       0.23802000
   140  C          0.93916000       0.63826000       0.76198000
   141  H         -0.00236800       0.29769800       0.22382600
   142  H          0.00236800       0.70230200       0.77617400
   143  C          0.12924000       0.56994000       0.24972000
   144  C          0.87076000       0.43006000       0.75028000
   145  H          0.11236200       0.64616500       0.24281600
   146  H          0.88763800       0.35383500       0.75718400
   147  C          0.82106000       0.90756000       0.22942000
   148  C          0.17894000       0.09244000       0.77058000
   149  H          0.75156000       0.87552600       0.19100100
   150  H          0.24844000       0.12447400       0.80899900
   151  C          0.86594000       0.33454000       0.40072000
   152  C          0.13406000       0.66546000       0.59928000
   153  H          0.86324900       0.33313900       0.35091900
   154  H          0.13675100       0.66686100       0.64908100
   155  C          0.56204000       0.23954000       0.03402000
   156  C          0.43796000       0.76046000       0.96598000
   157  H          0.59249200       0.30489900       0.07571100
   158  H          0.40750800       0.69510100       0.92428900
   159  C          0.03584000       0.47514000       0.22892000
   160  C          0.96416000       0.52486000       0.77108000
   161  H          0.95585000       0.48761100       0.20864100
   162  H          0.04415000       0.51238900       0.79135900
   163  C          0.59685000       0.09164000       0.92728000
   164  C          0.40315000       0.90836000       0.07272000
   165  H          0.64918000       0.05857800       0.89764300
   166  H          0.35082000       0.94142200       0.10235700
   167  C          0.54746000       0.68484000       0.21323000
   168  C          0.45254000       0.31516000       0.78677000
   169  H          0.57761900       0.76696100       0.23275200
   170  H          0.42238100       0.23303900       0.76724800
   171  C          0.64065000       0.18744000       0.99037000
   172  C          0.35935000       0.81256000       0.00963000
   173  H          0.72355800       0.21741600       0.00398000
   174  H          0.27644200       0.78258400      -0.00398000
   175  C          0.44998000       0.51965000       0.10533000
   176  C          0.55002000       0.48035000       0.89467000
   177  H          0.41685700       0.49048400       0.05398600
   178  H          0.58314300       0.50951600       0.94601400
   179  C          0.49898000       0.64125000       0.13793000
   180  C          0.50102000       0.35875000       0.86207000
   181  H          0.49853400       0.69437600       0.10725000
   182  H          0.50146600       0.30562400       0.89275000
   183  C          0.23376000       0.28606000       0.02333000
   184  C          0.76624000       0.71394000       0.97667000
   185  C          0.22527000       0.31216000       0.95457000
   186  C          0.77473000       0.68784000       0.04543000
   187  H          0.29178600       0.30660500       0.93222800
   188  H          0.70821400       0.69339500       0.06777200
   189  C          0.13406000       0.30046000       0.05773000
   190  C          0.86594000       0.69954000       0.94227000
   191  H          0.14022000       0.28377800       0.10423600
   192  H          0.85978000       0.71622200       0.89576400
   193  C          0.11489000       0.34697000       0.91896000
   194  C          0.88511000       0.65303000       0.08104000
   195  H          0.10749600       0.36032700       0.87157700
   196  H          0.89250400       0.63967300       0.12842300
   197  C          0.02778000       0.33847000       0.02394000
   198  C          0.97222000       0.66153000       0.97606000
   199  H          0.96296000       0.34889000       0.04762500
   200  H          0.03704000       0.65111000       0.95237500
   201  C          0.01747000       0.36157000       0.95246000
   202  C          0.98253000       0.63843000       0.04754000
   203  H          0.94547900       0.38636800       0.92863200
   204  H          0.05452100       0.61363200       0.07136800
   205  C          0.05018000       0.98348800       0.02905000
   206  C          0.94982000       0.01651200       0.97095000
   207  H          0.07321600       0.90437400       0.00728100
   208  H          0.92678400       0.09562600      -0.00728100
   209  H          0.12209600       0.04304400       0.04138000
   210  H          0.87790400       0.95695600       0.95862000
   211  C          0.01188000       0.97931000       0.09865000
   212  C         -0.01188000       0.02069000       0.90135000
   213  H          0.94328300       0.91621300       0.08743500
   214  H          0.05671700       0.08378700       0.91256500
   215  H         -0.01516700       0.05700700       0.11966700
   216  H          0.01516700       0.94299300       0.88033300
   217  C          0.12118000       0.95268900       0.15675000
   218  C          0.87882000       0.04731100       0.84325000
   219  H          0.14411300       0.87352000       0.13710400
   220  H          0.85588700       0.12648000       0.86289600
   221  H          0.09667500       0.95450800       0.20272500
   222  H          0.90332500       0.04549200       0.79727500
   223  H          0.18993500       0.01353900       0.16618800
   224  H          0.81006500      -0.01353900       0.83381200
