data_WOJWAT
_symmetry_space_group_name_H-M    'P1'
_symmetry_Int_Tables_number       1
loop_
_symmetry_equiv_pos_site_id
_symmetry_equiv_pos_as_xyz
1 x,y,z
_cell_length_a                   11.4482
_cell_length_b                   11.8662
_cell_length_c                   12.4413
_cell_angle_alpha                71.823
_cell_angle_beta                 63.263
_cell_angle_gamma                88.313
loop_
_atom_site_label
_atom_site_type_symbol
_atom_site_fract_x
_atom_site_fract_y
_atom_site_fract_z
     1  O          0.66150100       0.70841110       0.41725100
     2  O          0.33849900       0.29158890       0.58274900
     3  O          0.96066900       0.68607110       0.56589100
     4  O          0.03933100       0.31392890       0.43410900
     5  O          0.52594100       0.67863120       0.83012110
     6  O          0.47405900       0.32136880       0.16987890
     7  N          0.58919100       0.68477110       0.62679110
     8  N          0.41080900       0.31522890       0.37320890
     9  N          0.81484100       0.70730100       0.48600100
    10  N          0.18515900       0.29269900       0.51399900
    11  N          0.74486110       0.68730110       0.69991110
    12  N          0.25513890       0.31269890       0.30008890
    13  C          0.68670130       0.70154120       0.50314130
    14  C          0.31329870       0.29845880       0.49685870
    15  C          0.84893120       0.69224120       0.58263130
    16  C          0.15106880       0.30775880       0.41736870
    17  C          0.61275130       0.68344130       0.72731140
    18  C          0.38724870       0.31655870       0.27268860
    19  C          0.91847130       0.72200140       0.35810130
    20  C          0.08152870       0.27799860       0.64189870
    21  C          0.95092000       0.83302000       0.26552000
    22  C          0.04908000       0.16698000       0.73448000
    23  H          0.91252000       0.89842000       0.28612000
    24  H          0.08748000       0.10158000       0.71388000
    25  C          0.04132000       0.84532000       0.14142000
    26  C          0.95868000       0.15468000       0.85858000
    27  H          0.06332000       0.91942000       0.07762000
    28  H          0.93668000       0.08058000       0.92238000
    29  C          0.09882000       0.74883000       0.11192000
    30  C          0.90118000       0.25117000       0.88808000
    31  H          0.15892000       0.75753000       0.02802000
    32  H          0.84108000       0.24247000       0.97198000
    33  C          0.06772000       0.63952000       0.20592000
    34  C          0.93228000       0.36048000       0.79408000
    35  H          0.10822000       0.57472000       0.18552000
    36  H          0.89178000       0.42528000       0.81448000
    37  C          0.97679140       0.62472000       0.33082000
    38  C          0.02320860       0.37528000       0.66918000
    39  H          0.95561140       0.55072000       0.39472000
    40  H          0.04438860       0.44928000       0.60528000
    41  C          0.77521130       0.67951140       0.80321140
    42  C          0.22478870       0.32048860       0.19678860
    43  C          0.85492140       0.77322000       0.79022000
    44  C          0.14507860       0.22678000       0.20978000
    45  H          0.88785140       0.84072000       0.71712000
    46  H          0.11214860       0.15928000       0.28288000
    47  C          0.88472000       0.76412000       0.88912000
    48  C          0.11528000       0.23588000       0.11088000
    49  H          0.93872000       0.82592000       0.88192000
    50  H          0.06128000       0.17408000       0.11808000
    51  C          0.83492000       0.66462000      -0.00278000
    52  C          0.16508000       0.33538000       0.00278000
    53  H          0.85532000       0.65942000       0.06292000
    54  H          0.14468000       0.34058000       0.93708000
    55  C          0.75482000       0.57242000       0.00862000
    56  C          0.24518000       0.42758000      -0.00862000
    57  H          0.72122000       0.50512000       0.08192000
    58  H          0.27878000       0.49488000       0.91808000
    59  C          0.72452000       0.58002000       0.91107150
    60  C          0.27548000       0.41998000       0.08892850
    61  H          0.67012000       0.51832000       0.91848150
    62  H          0.32988000       0.48168000       0.08151850
    63  C          0.45265130       0.66707130       0.65262130
    64  C          0.54734870       0.33292870       0.34737870
    65  C          0.40875140       0.56897140       0.63761140
    66  C          0.59124860       0.43102860       0.36238860
    67  H          0.46638140       0.51571140       0.60916140
    68  H          0.53361860       0.48428860       0.39083860
    69  C          0.27792000       0.55042000       0.66532000
    70  C          0.72208000       0.44958000       0.33468000
    71  H          0.24752000       0.48462000       0.65512000
    72  H          0.75248000       0.51538000       0.34488000
    73  C          0.19262000       0.62932000       0.70802000
    74  C          0.80738000       0.37068000       0.29198000
    75  H          0.10482000       0.61692000       0.72622000
    76  H          0.89518000       0.38308000       0.27378000
    77  C          0.23752000       0.72632000       0.72372000
    78  C          0.76248000       0.27368000       0.27628000
    79  H          0.17972000       0.77902000       0.75322000
    80  H          0.82028000       0.22098000       0.24678000
    81  C          0.36807150       0.74609150       0.69582000
    82  C          0.63192850       0.25390850       0.30418000
    83  H          0.39840150       0.81191150       0.70612000
    84  H          0.60159850       0.18808850       0.29388000
    85  O          0.12472000       0.92522000       0.51792000
    86  O          0.87528000       0.07478000       0.48208000
    87  O          0.28312000       0.03822000       0.48922000
    88  O          0.71688000       0.96178000       0.51078000
    89  O          0.23392140       0.56912130       0.38172000
    90  O          0.76607860       0.43087870       0.61828000
    91  O          0.41642000       0.59338130       0.21212000
    92  O          0.58358000       0.40661870       0.78788000
    93  O          0.76921120       0.88045120       0.11621120
    94  O          0.23078880       0.11954880       0.88378880
    95  O          0.72631140       0.01413130       0.20692000
    96  O          0.27368860       0.98586870       0.79308000
    97  N          0.23932000       0.95632000       0.47402000
    98  N          0.76068000       0.04368000       0.52598000
    99  N          0.34074140       0.62413120       0.30142140
   100  N          0.65925860       0.37586880       0.69857860
   101  N          0.69391130       0.92717120       0.18944130
   102  N          0.30608870       0.07282880       0.81055870
   103  C          0.33422000       0.89028140       0.39782000
   104  C          0.66578000       0.10971860       0.60218000
   105  C          0.46552000       0.93555140       0.33622000
   106  C          0.53448000       0.06444860       0.66378000
   107  H          0.49382000       0.00293140       0.34552000
   108  H          0.50618000      -0.00293140       0.65448000
   109  C          0.55346150       0.87763130       0.26024140
   110  C          0.44653850       0.12236870       0.73975860
   111  C          0.51527140       0.77654130       0.24615130
   112  C          0.48472860       0.22345870       0.75384870
   113  H          0.57603140       0.73896130       0.19358130
   114  H          0.42396860       0.26103870       0.80641870
   115  C          0.38302150       0.73366120       0.31347140
   116  C          0.61697850       0.26633880       0.68652860
   117  C          0.28912000       0.78824140       0.39022000
   118  C          0.71088000       0.21175860       0.60978000
   119  H          0.20022000       0.75766140       0.43442000
   120  H          0.79978000       0.24233860       0.56558000
   121  C          0.36682000       0.98992000       0.07122000
   122  C          0.63318000       0.01008000       0.92878000
   123  H          0.27572000       0.98252000       0.11992000
   124  H          0.72428000       0.01748000       0.88008000
   125  C          0.42202000       0.90432000       0.01772000
   126  C          0.57798000       0.09568000       0.98228000
   127  H          0.36852000       0.83932000       0.02982000
   128  H          0.63148000       0.16068000       0.97018000
   129  C          0.44432000       0.08542000       0.05362000
   130  C          0.55568000       0.91458000       0.94638000
   131  H          0.40652000       0.14342000       0.08982000
   132  H          0.59348000       0.85658000       0.91018000
