data_WOJWUN
_symmetry_space_group_name_H-M    'P1'
_symmetry_Int_Tables_number       1
loop_
_symmetry_equiv_pos_site_id
_symmetry_equiv_pos_as_xyz
1 x,y,z
_cell_length_a                   7.215014
_cell_length_b                   13.8473
_cell_length_c                   14.7233
_cell_angle_alpha                115.503
_cell_angle_beta                 103.123
_cell_angle_gamma                94.943
loop_
_atom_site_label
_atom_site_type_symbol
_atom_site_fract_x
_atom_site_fract_y
_atom_site_fract_z
     1  C          0.57064000       0.36532000       0.15858190
     2  C          0.42936000       0.63468000       0.84141810
     3  C          0.65494000       0.45532000       0.25632000
     4  C          0.34506000       0.54468000       0.74368000
     5  H          0.71850000       0.52070000       0.26340000
     6  H          0.28150000       0.47930000       0.73660000
     7  C          0.63904000       0.44262000       0.34292000
     8  C          0.36096000       0.55738000       0.65708000
     9  C          0.54294000       0.34732000       0.33552000
    10  C          0.45706000       0.65268000       0.66448000
    11  H          0.53480000       0.34110000       0.39500000
    12  H          0.46520000       0.65890000       0.60500000
    13  C          0.45934000       0.26182000       0.23512000
    14  C          0.54066000       0.73818000       0.76488000
    15  C          0.47204000       0.26762000       0.14538190
    16  C          0.52796000       0.73238000       0.85461810
    17  H          0.41670000       0.20840000       0.07890000
    18  H          0.58330000       0.79160000       0.92110000
    19  N          0.58883000       0.37444180       0.06474160
    20  N          0.41117000       0.62555820       0.93525840
    21  N          0.73394000       0.53422000       0.44809190
    22  N          0.26606000       0.46578000       0.55190810
    23  N          0.35103000       0.16068180       0.22477170
    24  N          0.64897000       0.83931820       0.77522830
    25  O          0.53293000       0.29145160       0.98039860
    26  O          0.46707000       0.70854840       0.01960140
    27  O          0.65913000       0.46483160       0.07768160
    28  O          0.34087000       0.53516840       0.92231840
    29  O          0.80766000       0.61942000       0.45352000
    30  O          0.19234000       0.38058000       0.54648000
    31  O          0.73085000       0.52182000       0.52391170
    32  O          0.26915000       0.47818000       0.47608830
    33  O          0.34503000       0.15655160       0.30533150
    34  O          0.65497000       0.84344840       0.69466850
    35  O          0.27283000       0.08624150       0.13523150
    36  O          0.72717000       0.91375850       0.86476850
    37  C          0.02113000       0.73832000       0.86929810
    38  C         -0.02113000       0.26168000       0.13070190
    39  C          0.03613000       0.78982000       0.97626810
    40  C          0.96387000       0.21018000       0.02373190
    41  H          0.09030000       0.86420000       0.01640000
    42  H          0.90970000       0.13580000       0.98360000
    43  C          0.97054000       0.73072000       0.02413190
    44  C          0.02946000       0.26928000       0.97586810
    45  C          0.88683000       0.61962000       0.96215810
    46  C          0.11317000       0.38038000       0.03784190
    47  H          0.84470000       0.57960000      -0.00660000
    48  H          0.15530000       0.42040000       0.00660000
    49  C          0.86493000       0.56692190       0.85398810
    50  C          0.13507000       0.43307810       0.14601190
    51  C          0.93364000       0.62732000       0.80839810
    52  C          0.06636000       0.37268000       0.19160190
    53  H          0.92090000       0.59310000       0.73670000
    54  H          0.07910000       0.40690000       0.26330000
    55  C          0.09344000       0.79932000       0.81860810
    56  C          0.90656000       0.20068000       0.18139190
    57  C          0.26194000       0.93552000       0.78228000
    58  C          0.73806000       0.06448000       0.21772000
    59  C          0.15854000       0.84572000       0.69198000
    60  C          0.84146000       0.15428000       0.30802000
    61  H          0.15190000       0.83640000       0.62480000
    62  H          0.84810000       0.16360000       0.37520000
    63  C          0.06124000       0.76732000       0.71338000
    64  C          0.93876000       0.23268000       0.28662000
    65  H         -0.01690000       0.70070000       0.66080000
    66  H          0.01690000       0.29930000       0.33920000
    67  C         -0.00906000       0.78792000       0.13733190
    68  C          0.00906000       0.21208000       0.86266810
    69  C          0.97154000       0.83942000       0.31686180
    70  C          0.02846000       0.16058000       0.68313820
    71  C          0.07874000       0.92212000       0.31322000
    72  C          0.92126000       0.07788000       0.68678000
    73  H          0.13820000      -0.01030000       0.37100000
    74  H          0.86180000       0.01030000       0.62900000
    75  C          0.08864000       0.89212000       0.20962000
    76  C          0.91136000       0.10788000       0.79038000
    77  H          0.15550000       0.93910000       0.19240000
    78  H          0.84450000       0.06090000       0.80760000
    79  C          0.76724000       0.45162000       0.78915820
    80  C          0.23276000       0.54838000       0.21084180
    81  C          0.62644000       0.26472000       0.64250810
    82  C          0.37356000       0.73528000       0.35749190
    83  C          0.59084000       0.27552000       0.73348000
    84  C          0.40916000       0.72448000       0.26652000
    85  H          0.52250000       0.21980000       0.74000000
    86  H          0.47750000       0.78020000       0.26000000
    87  C          0.67224000       0.38312000       0.81678000
    88  C          0.32776000       0.61688000       0.18322000
    89  H          0.66200000       0.40530000       0.88440000
    90  H          0.33800000       0.59470000       0.11560000
    91  S          0.24351900       0.92823500       0.89384500
    92  S          0.75648100       0.07176500       0.10615500
    93  S          0.88138900       0.72432500       0.19643500
    94  S          0.11861100       0.27567500       0.80356500
    95  S          0.75744100       0.38251500       0.65695500
    96  S          0.24255900       0.61748500       0.34304500
    97  Cl         0.40174100       0.04963500       0.79505400
    98  Cl         0.59825900       0.95036500       0.20494600
    99  Cl         0.91892100       0.83782600       0.42423500
   100  Cl         0.08107900       0.16217400       0.57576500
   101  Cl         0.55397100       0.15015500       0.52241500
   102  Cl         0.44602900       0.84984500       0.47758500
