data_WOMWII
_symmetry_space_group_name_H-M    'P1'
_symmetry_Int_Tables_number       1
loop_
_symmetry_equiv_pos_site_id
_symmetry_equiv_pos_as_xyz
1 x,y,z
_cell_length_a                   10.70828
_cell_length_b                   7.02706
_cell_length_c                   13.88201
_cell_angle_alpha                90.0
_cell_angle_beta                 91.6791
_cell_angle_gamma                90.0
loop_
_atom_site_label
_atom_site_type_symbol
_atom_site_fract_x
_atom_site_fract_y
_atom_site_fract_z
     1  O          0.47628120       0.25922000       0.13800120
     2  O          0.52371880       0.75922000       0.36199880
     3  O          0.52371880       0.74078000       0.86199880
     4  O          0.47628120       0.24078000       0.63800120
     5  O          0.06840120       0.20072000       0.22050110
     6  O          0.93159880       0.70072000       0.27949890
     7  O          0.93159880       0.79928000       0.77949890
     8  O          0.06840120       0.29928000       0.72050110
     9  N          0.36927140       0.34682000       0.16054130
    10  N          0.63072860       0.84682000       0.33945870
    11  N          0.63072860       0.65318000       0.83945870
    12  N          0.36927140       0.15318000       0.66054130
    13  N          0.30041170       0.86868000       0.15993150
    14  N          0.69958830       0.36868000       0.34006850
    15  N          0.69958830       0.13132000       0.84006850
    16  N          0.30041170       0.63132000       0.65993150
    17  N          0.14496160       0.50063000       0.20669150
    18  N          0.85503840       0.00063000       0.29330850
    19  N          0.85503840       0.49937000       0.79330850
    20  N          0.14496160      -0.00063000       0.70669150
    21  C          0.27806160       0.23323000       0.17733140
    22  C          0.72193840       0.73323000       0.32266860
    23  C          0.72193840       0.76677000       0.82266860
    24  C          0.27806160       0.26677000       0.67733140
    25  C          0.28894180       0.02903000       0.16873160
    26  C          0.71105820       0.52903000       0.33126840
    27  C          0.71105820       0.97097000       0.83126840
    28  C          0.28894180       0.47097000       0.66873160
    29  C          0.15325170       0.31273000       0.20409140
    30  C          0.84674830       0.81273000       0.29590860
    31  C          0.84674830       0.68727000       0.79590860
    32  C          0.15325170       0.18727000       0.70409140
    33  H          0.53230000       0.36850000       0.12520000
    34  H          0.46770000       0.86850000       0.37480000
    35  H          0.46770000       0.63150000       0.87480000
    36  H          0.53230000       0.13150000       0.62520000
    37  H          0.07520000       0.55530000       0.22841500
    38  H          0.92480000       0.05530000       0.27158500
    39  H          0.92480000       0.44470000       0.77158500
    40  H          0.07520000       0.94470000       0.72841500
    41  H          0.21220000       0.58130000       0.19301500
    42  H          0.78780000       0.08130000       0.30698500
    43  H          0.78780000       0.41870000       0.80698500
    44  H          0.21220000       0.91870000       0.69301500
    45  N          0.56206150       0.72903000       0.10506140
    46  N          0.43793850       0.22903000       0.39493860
    47  N          0.43793850       0.27097000       0.89493860
    48  N          0.56206150       0.77097000       0.60506140
    49  N          0.61296160       0.55323000       0.10271130
    50  N          0.38703840       0.05323000       0.39728870
    51  N          0.38703840       0.44677000       0.89728870
    52  N          0.61296160       0.94677000       0.60271130
    53  C          0.64592000       0.86323000       0.08572170
    54  C          0.35408000       0.36323000       0.41427830
    55  C          0.35408000       0.13677000       0.91427830
    56  C          0.64592000       0.63677000       0.58572170
    57  C          0.75761170       0.77373000       0.06964150
    58  C          0.24238830       0.27373000       0.43035850
    59  C          0.24238830       0.22627000       0.93035850
    60  C          0.75761170       0.72627000       0.56964150
    61  C          0.73161170       0.58003000       0.08100150
    62  C          0.26838830       0.08003000       0.41899850
    63  C          0.26838830       0.41997000       0.91899850
    64  C          0.73161170       0.91997000       0.58100150
    65  C          0.81772000       0.41293000       0.07148190
    66  C          0.18228000       0.91293000       0.42851810
    67  C          0.18228000       0.58707000       0.92851810
    68  C          0.81772000       0.08707000       0.57148190
    69  H          0.77173600       0.29508800       0.08347500
    70  H          0.22826400       0.79508800       0.41652500
    71  H          0.22826400       0.70491200       0.91652500
    72  H          0.77173600       0.20491200       0.58347500
    73  H          0.85020600       0.41004600       0.00623700
    74  H          0.14979400       0.91004600       0.49376300
    75  H          0.14979400       0.58995400      -0.00623700
    76  H          0.85020600       0.08995400       0.50623700
    77  H          0.88732100       0.42457400       0.11850700
    78  H          0.11267900       0.92457400       0.38149300
    79  H          0.11267900       0.57542600       0.88149300
    80  H          0.88732100       0.07542600       0.61850700
    81  C          0.88103190       0.86053000       0.04654170
    82  C          0.11896810       0.36053000       0.45345830
    83  C          0.11896810       0.13947000       0.95345830
    84  C          0.88103190       0.63947000       0.54654170
    85  H          0.87273800      -0.00070600       0.04392300
    86  H          0.12726200       0.49929400       0.45607700
    87  H          0.12726200       0.00070600       0.95607700
    88  H          0.87273800       0.50070600       0.54392300
    89  H          0.94334200       0.82573800       0.09658700
    90  H          0.05665800       0.32573800       0.40341300
    91  H          0.05665800       0.17426200       0.90341300
    92  H          0.94334200       0.67426200       0.59658700
    93  H          0.90770700       0.81316300       0.98400400
    94  H          0.09229300       0.31316300       0.51599600
    95  H          0.09229300       0.18683700       0.01599600
    96  H          0.90770700       0.68683700       0.48400400
    97  H          0.48120000       0.75130000       0.11891600
    98  H          0.51880000       0.25130000       0.38108400
    99  H          0.51880000       0.24870000       0.88108400
   100  H          0.48120000       0.74870000       0.61891600
   101  H          0.61920000      -0.01560000       0.08751700
   102  H          0.38080000       0.48440000       0.41248300
   103  H          0.38080000       0.01560000       0.91248300
   104  H          0.61920000       0.51560000       0.58751700
