data_WONZEG
_symmetry_space_group_name_H-M    'P1'
_symmetry_Int_Tables_number       1
loop_
_symmetry_equiv_pos_site_id
_symmetry_equiv_pos_as_xyz
1 x,y,z
_cell_length_a                   32.095711
_cell_length_b                   4.53872
_cell_length_c                   11.87734
_cell_angle_alpha                90.0
_cell_angle_beta                 99.8162
_cell_angle_gamma                90.0
loop_
_atom_site_label
_atom_site_type_symbol
_atom_site_fract_x
_atom_site_fract_y
_atom_site_fract_z
     1  C          0.23223400       0.57733000       0.40431120
     2  C          0.76776600       0.07733000       0.09568880
     3  C          0.76776600       0.42267000       0.59568880
     4  C          0.23223400       0.92267000       0.90431120
     5  C          0.27511400       0.51333000       0.39884120
     6  C          0.72488600       0.01333000       0.10115880
     7  C          0.72488600       0.48667000       0.60115880
     8  C          0.27511400      -0.01333000       0.89884120
     9  C          0.33432400       0.49673000       0.55715130
    10  C          0.66567600      -0.00327000       0.94284870
    11  C          0.66567600       0.50327000       0.44284870
    12  C          0.33432400       0.00327000       0.05715130
    13  C          0.20031400       0.43864000       0.32468120
    14  C          0.79968600       0.93864000       0.17531880
    15  C          0.79968600       0.56136000       0.67531880
    16  C          0.20031400       0.06136000       0.82468120
    17  C          0.39263400       0.54813000       0.71845130
    18  C          0.60736600       0.04813000       0.78154870
    19  C          0.60736600       0.45187000       0.28154870
    20  C          0.39263400       0.95187000       0.21845130
    21  C          0.21932500       0.76874000       0.48511130
    22  C          0.78067500       0.26874000       0.01488870
    23  C          0.78067500       0.23126000       0.51488870
    24  C          0.21932500       0.73126000       0.98511130
    25  H          0.23940000       0.86350000       0.53870000
    26  H          0.76060000       0.36350000       0.96130000
    27  H          0.76060000       0.13650000       0.46130000
    28  H          0.23940000       0.63650000       0.03870000
    29  C          0.25293500       0.18794000       0.24037140
    30  C          0.74706500       0.68794000       0.25962860
    31  C          0.74706500       0.81206000       0.75962860
    32  C          0.25293500       0.31206000       0.74037140
    33  H          0.26010000       0.05840000       0.18610000
    34  H          0.73990000       0.55840000       0.31390000
    35  H          0.73990000       0.94160000       0.81390000
    36  H          0.26010000       0.44160000       0.68610000
    37  C          0.21164500       0.24264000       0.24328130
    38  C          0.78835500       0.74264000       0.25671870
    39  C          0.78835500       0.75736000       0.75671870
    40  C          0.21164500       0.25736000       0.74328130
    41  H          0.19070000       0.15040000       0.19130000
    42  H          0.80930000       0.65040000       0.30870000
    43  H          0.80930000       0.84960000       0.80870000
    44  H          0.19070000       0.34960000       0.69130000
    45  C          0.28513500       0.32394000       0.31817130
    46  C          0.71486500       0.82394000       0.18182870
    47  C          0.71486500       0.67606000       0.68182870
    48  C          0.28513500       0.17606000       0.81817130
    49  H          0.31330000       0.28470000       0.31470000
    50  H          0.68670000       0.78470000       0.18530000
    51  H          0.68670000       0.71530000       0.68530000
    52  H          0.31330000       0.21530000       0.81470000
    53  C          0.17772500       0.81424000       0.48455150
    54  C          0.82227500       0.31424000       0.01544850
    55  C          0.82227500       0.18576000       0.51544850
    56  C          0.17772500       0.68576000       0.98455150
    57  H          0.16880000       0.94060000       0.53740000
    58  H          0.83120000       0.44060000       0.96260000
    59  H          0.83120000       0.05940000       0.46260000
    60  H          0.16880000       0.55940000       0.03740000
    61  C          0.42174500       0.34844000       0.69218150
    62  C          0.57825500       0.84844000       0.80781850
    63  C          0.57825500       0.65156000       0.30781850
    64  C          0.42174500       0.15156000       0.19218150
    65  H          0.42020000       0.28150000       0.61760000
    66  H          0.57980000       0.78150000       0.88240000
    67  H          0.57980000       0.71850000       0.38240000
    68  H          0.42020000       0.21850000       0.11760000
    69  C          0.14815500       0.66815000       0.40316160
    70  C          0.85184500       0.16815000       0.09683840
    71  C          0.85184500       0.33185000       0.59683840
    72  C          0.14815500       0.83185000       0.90316160
    73  H          0.11960000       0.70090000       0.40410000
    74  H          0.88040000       0.20090000       0.09590000
    75  H          0.88040000       0.29910000       0.59590000
    76  H          0.11960000       0.79910000       0.90410000
    77  C          0.45339500       0.24745000       0.77742000
    78  C          0.54660500       0.74745000       0.72258000
    79  C          0.54660500       0.75255000       0.22258000
    80  C          0.45339500       0.25255000       0.27742000
    81  H          0.47260000       0.10820000       0.76020000
    82  H          0.52740000       0.60820000       0.73980000
    83  H          0.52740000       0.89180000       0.23980000
    84  H          0.47260000       0.39180000       0.26020000
    85  C          0.39620500       0.65034000       0.82907150
    86  C          0.60379500       0.15034000       0.67092850
    87  C          0.60379500       0.34966000       0.17092850
    88  C          0.39620500       0.84966000       0.32907150
    89  H          0.37680000       0.78600000       0.84770000
    90  H          0.62320000       0.28600000       0.65230000
    91  H          0.62320000       0.21400000       0.15230000
    92  H          0.37680000       0.71400000       0.34770000
    93  C          0.45663600       0.35025000       0.88652000
    94  C          0.54336400       0.85025000       0.61348000
    95  C          0.54336400       0.64975000       0.11348000
    96  C          0.45663600       0.14975000       0.38652000
    97  H          0.47810000       0.28220000       0.94320000
    98  H          0.52190000       0.78220000       0.55680000
    99  H          0.52190000       0.71780000       0.05680000
   100  H          0.47810000       0.21780000       0.44320000
   101  C          0.42855700       0.55145000       0.91212160
   102  C          0.57144300       0.05145000       0.58787840
   103  C          0.57144300       0.44855000       0.08787840
   104  C          0.42855700       0.94855000       0.41212160
   105  H          0.43110000       0.62360000       0.98630000
   106  H          0.56890000       0.12360000       0.51370000
   107  H          0.56890000       0.37640000       0.01370000
   108  H          0.43110000       0.87640000       0.48630000
   109  N          0.30735300       0.65183000       0.47901110
   110  N          0.69264700       0.15183000       0.02098890
   111  N          0.69264700       0.34817000       0.52098890
   112  N          0.30735300       0.84817000       0.97901110
   113  H          0.30970000       0.84050000       0.47760000
   114  H          0.69030000       0.34050000       0.02240000
   115  H          0.69030000       0.15950000       0.52240000
   116  H          0.30970000       0.65950000       0.97760000
   117  N          0.36055400       0.66403000       0.63337120
   118  N          0.63944600       0.16403000       0.86662880
   119  N          0.63944600       0.33597000       0.36662880
   120  N          0.36055400       0.83597000       0.13337120
   121  H          0.35750000       0.85220000       0.62970000
   122  H          0.64250000       0.35220000       0.87030000
   123  H          0.64250000       0.14780000       0.37030000
   124  H          0.35750000       0.64780000       0.12970000
   125  N          0.15819400       0.48794000       0.32577120
   126  N          0.84180600      -0.01206000       0.17422880
   127  N          0.84180600       0.51206000       0.67422880
   128  N          0.15819400       0.01206000       0.82577120
   129  O          0.33447300       0.22652000       0.56009100
   130  O          0.66552700       0.72652000       0.93990900
   131  O          0.66552700       0.77348000       0.43990900
   132  O          0.33447300       0.27348000       0.06009100
   133  O          0.08787400       0.28744000       0.71966110
   134  O          0.91212600       0.78744000       0.78033890
   135  O          0.91212600       0.71256000       0.28033890
   136  O          0.08787400       0.21256000       0.21966110
   137  H          0.11080000       0.21170000       0.74400000
   138  H          0.88920000       0.71170000       0.75600000
   139  H          0.88920000       0.78830000       0.25600000
   140  H          0.11080000       0.28830000       0.24400000
   141  O          0.10580500       0.17905000       0.55516130
   142  O          0.89419500       0.67905000       0.94483870
   143  O          0.89419500       0.82095000       0.44483870
   144  O          0.10580500       0.32095000       0.05516130
   145  C          0.03875500       0.39295000       0.55385140
   146  C          0.96124500       0.89295000       0.94614860
   147  C          0.96124500       0.60705000       0.44614860
   148  C          0.03875500       0.10705000       0.05385140
   149  C          0.01189500       0.52965000       0.61614150
   150  C          0.98810500       0.02965000       0.88385850
   151  C          0.98810500       0.47035000       0.38385850
   152  C          0.01189500      -0.02965000       0.11614150
   153  H          0.01980000       0.55060000       0.69480000
   154  H          0.98020000       0.05060000       0.80520000
   155  H          0.98020000       0.44940000       0.30520000
   156  H          0.01980000       0.94940000       0.19480000
   157  C          0.08045600       0.27225000       0.60855160
   158  C          0.91954400       0.77225000       0.89144840
   159  C          0.91954400       0.72775000       0.39144840
   160  C          0.08045600       0.22775000       0.10855160
   161  C          0.02666600       0.36466000       0.43743160
   162  C          0.97333400       0.86466000       0.06256840
   163  C          0.97333400       0.63534000       0.56256840
   164  C          0.02666600       0.13534000       0.93743160
   165  H          0.04470000       0.27320000       0.39460000
   166  H          0.95530000       0.77320000       0.10540000
   167  H          0.95530000       0.72680000       0.60540000
   168  H          0.04470000       0.22680000       0.89460000
