data_WOPCOV
_symmetry_space_group_name_H-M    'P1'
_symmetry_Int_Tables_number       1
loop_
_symmetry_equiv_pos_site_id
_symmetry_equiv_pos_as_xyz
1 x,y,z
_cell_length_a                   19.14955
_cell_length_b                   5.74532
_cell_length_c                   10.47764
_cell_angle_alpha                90.0
_cell_angle_beta                 90.0
_cell_angle_gamma                90.0
loop_
_atom_site_label
_atom_site_type_symbol
_atom_site_fract_x
_atom_site_fract_y
_atom_site_fract_z
     1  C          0.52630900       0.78653000       0.55862000
     2  C          0.47369100       0.21347000       0.05862000
     3  C          0.02630900       0.21347000       0.55862000
     4  C          0.97369100       0.78653000       0.05862000
     5  C          0.51100900       0.57543000       0.49928190
     6  C          0.48899100       0.42457000      -0.00071810
     7  C          0.01100900       0.42457000       0.49928190
     8  C          0.98899100       0.57543000      -0.00071810
     9  H          0.53730000       0.52740000       0.42940000
    10  H          0.46270000       0.47260000       0.92940000
    11  H          0.03730000       0.47260000       0.42940000
    12  H          0.96270000       0.52740000       0.92940000
    13  C          0.45727800       0.43703000       0.54312190
    14  C          0.54272200       0.56297000       0.04312190
    15  C          0.95727800       0.56297000       0.54312190
    16  C          0.04272200       0.43703000       0.04312190
    17  H          0.44720000       0.29830000       0.50130000
    18  H          0.55280000       0.70170000       0.00130000
    19  H          0.94720000       0.70170000       0.50130000
    20  H          0.05280000       0.29830000       0.00130000
    21  C          0.41798800       0.50133000       0.64857180
    22  C          0.58201200       0.49867000       0.14857180
    23  C          0.91798800       0.49867000       0.64857180
    24  C          0.08201200       0.50133000       0.14857180
    25  C          0.43351900       0.71213000       0.70842000
    26  C          0.56648100       0.28787000       0.20842000
    27  C          0.93351900       0.28787000       0.70842000
    28  C          0.06648100       0.71213000       0.20842000
    29  H          0.40760000       0.75850000       0.77900000
    30  H          0.59240000       0.24150000       0.27900000
    31  H          0.90760000       0.24150000       0.77900000
    32  H          0.09240000       0.75850000       0.27900000
    33  C          0.48690900       0.85323000       0.66402000
    34  C          0.51309100       0.14677000       0.16402000
    35  C          0.98690900       0.14677000       0.66402000
    36  C          0.01309100       0.85323000       0.16402000
    37  H          0.49650000      -0.00670000       0.70490000
    38  H          0.50350000       0.00670000       0.20490000
    39  H         -0.00350000       0.00670000       0.70490000
    40  H          0.00350000      -0.00670000       0.20490000
    41  C          0.36110900       0.34843000       0.69914190
    42  C          0.63889100       0.65157000       0.19914190
    43  C          0.86110900       0.65157000       0.69914190
    44  C          0.13889100       0.34843000       0.19914190
    45  N          0.58040100       0.92263000       0.51442000
    46  N          0.41959900       0.07737000       0.01442000
    47  N          0.08040100       0.07737000       0.51442000
    48  N          0.91959900       0.92263000       0.01442000
    49  H          0.59030000       0.05140000       0.55200000
    50  H          0.40970000       0.94860000       0.05200000
    51  H          0.09030000       0.94860000       0.55200000
    52  H          0.90970000       0.05140000       0.05200000
    53  H          0.60420000       0.87870000       0.44910000
    54  H          0.39580000       0.12130000       0.94910000
    55  H          0.10420000       0.12130000       0.44910000
    56  H          0.89580000       0.87870000       0.94910000
    57  O          0.33765700       0.19423000       0.62400130
    58  O          0.66234300       0.80577000       0.12400130
    59  O          0.83765700       0.80577000       0.62400130
    60  O          0.16234300       0.19423000       0.12400130
    61  H          0.31050000       0.10930000       0.66270000
    62  H          0.68950000       0.89070000       0.16270000
    63  H          0.81050000       0.89070000       0.66270000
    64  H          0.18950000       0.10930000       0.16270000
    65  O          0.34016700       0.37633000       0.81078150
    66  O          0.65983300       0.62367000       0.31078150
    67  O          0.84016700       0.62367000       0.81078150
    68  O          0.15983300       0.37633000       0.31078150
    69  C          0.20028800       0.95587000       0.80433180
    70  C          0.79971200       0.04413000       0.30433180
    71  C          0.70028800       0.04413000       0.80433180
    72  C          0.29971200       0.95587000       0.30433180
    73  C          0.14359100       0.80566000       0.83182000
    74  C          0.85640900       0.19434000       0.33182000
    75  C          0.64359100       0.19434000       0.83182000
    76  C          0.35640900       0.80566000       0.33182000
    77  H          0.11530000       0.83270000       0.90250000
    78  H          0.88470000       0.16730000       0.40250000
    79  H          0.61530000       0.16730000       0.90250000
    80  H          0.38470000       0.83270000       0.40250000
    81  C          0.13100110       0.62196000       0.75382000
    82  C          0.86899890       0.37804000       0.25382000
    83  C          0.63100110       0.37804000       0.75382000
    84  C          0.36899890       0.62196000       0.25382000
    85  H          0.09400000       0.52240000       0.77190000
    86  H          0.90600000       0.47760000       0.27190000
    87  H          0.59400000       0.47760000       0.77190000
    88  H          0.40600000       0.52240000       0.27190000
    89  C          0.17283110       0.57946000       0.64613000
    90  C          0.82716890       0.42054000       0.14613000
    91  C          0.67283110       0.42054000       0.64613000
    92  C          0.32716890       0.57946000       0.14613000
    93  H          0.16420000       0.45380000       0.59250000
    94  H          0.83580000       0.54620000       0.09250000
    95  H          0.66420000       0.54620000       0.59250000
    96  H          0.33580000       0.45380000       0.09250000
    97  C          0.22629100       0.72836000       0.62352000
    98  C          0.77370900       0.27164000       0.12352000
    99  C          0.72629100       0.27164000       0.62352000
   100  C          0.27370900       0.72836000       0.12352000
   101  H          0.25480000       0.70360000       0.55300000
   102  H          0.74520000       0.29640000       0.05300000
   103  H          0.75480000       0.29640000       0.55300000
   104  H          0.24520000       0.70360000       0.05300000
   105  N          0.21665900       0.13843000       0.87554190
   106  N          0.78334100       0.86157000       0.37554190
   107  N          0.71665900       0.86157000       0.87554190
   108  N          0.28334100       0.13843000       0.37554190
   109  H          0.25150000       0.22520000       0.85480000
   110  H          0.74850000       0.77480000       0.35480000
   111  H          0.75150000       0.77480000       0.85480000
   112  H          0.24850000       0.22520000       0.35480000
   113  H          0.19250000       0.17020000       0.94250000
   114  H          0.80750000       0.82980000       0.44250000
   115  H          0.69250000       0.82980000       0.94250000
   116  H          0.30750000       0.17020000       0.44250000
   117  N          0.23919700       0.91177000       0.70065160
   118  N          0.76080300       0.08823000       0.20065160
   119  N          0.73919700       0.08823000       0.70065160
   120  N          0.26080300       0.91177000       0.20065160
