data_WOQBAF02
_symmetry_space_group_name_H-M    'P1'
_symmetry_Int_Tables_number       1
loop_
_symmetry_equiv_pos_site_id
_symmetry_equiv_pos_as_xyz
1 x,y,z
_cell_length_a                   16.52301
_cell_length_b                   15.99523
_cell_length_c                   5.47923
_cell_angle_alpha                90.0
_cell_angle_beta                 90.0
_cell_angle_gamma                90.0
loop_
_atom_site_label
_atom_site_type_symbol
_atom_site_fract_x
_atom_site_fract_y
_atom_site_fract_z
     1  N          0.20001800       0.69243900       0.86143000
     2  N          0.79998200       0.30756100       0.36143000
     3  N          0.70001800       0.80756100       0.86143000
     4  N          0.29998200       0.19243900       0.36143000
     5  N          0.10213800       0.71698900       0.44233000
     6  N          0.89786200       0.28301100       0.94233000
     7  N          0.60213800       0.78301100       0.44233000
     8  N          0.39786200       0.21698900       0.94233000
     9  C          0.18758900       0.76944100       0.76833000
    10  C          0.81241100       0.23055900       0.26833000
    11  C          0.68758900       0.73055900       0.76833000
    12  C          0.31241100       0.26944100       0.26833000
    13  C          0.22455100       0.83993100       0.88144000
    14  C          0.77544900       0.16006900       0.38144000
    15  C          0.72455100       0.66006900       0.88144000
    16  C          0.27544900       0.33993100       0.38144000
    17  H          0.25940000       0.83250000       0.01750000
    18  H          0.74060000       0.16750000       0.51750000
    19  H          0.75940000       0.66750000       0.01750000
    20  H          0.24060000       0.33250000       0.51750000
    21  C          0.20961100       0.91789110       0.79344000
    22  C          0.79038900       0.08210890       0.29344000
    23  C          0.70961100       0.58210890       0.79344000
    24  C          0.29038900       0.41789110       0.29344000
    25  H          0.23390000       0.96490000       0.87010000
    26  H          0.76610000       0.03510000       0.37010000
    27  H          0.73390000       0.53510000       0.87010000
    28  H          0.26610000       0.46490000       0.37010000
    29  C          0.15804110       0.93029110       0.58744000
    30  C          0.84195890       0.06970890       0.08744000
    31  C          0.65804110       0.56970890       0.58744000
    32  C          0.34195890       0.43029110       0.08744000
    33  H          0.14790000       0.98550000       0.53130000
    34  H          0.85210000       0.01450000       0.03130000
    35  H          0.64790000       0.51450000       0.53130000
    36  H          0.35210000       0.48550000       0.03130000
    37  C          0.12323100       0.86483110       0.47054000
    38  C          0.87676900       0.13516890       0.97054000
    39  C          0.62323100       0.63516890       0.47054000
    40  C          0.37676900       0.36483110       0.97054000
    41  H          0.08970000       0.87410000       0.33220000
    42  H          0.91030000       0.12590000       0.83220000
    43  H          0.58970000       0.62590000       0.33220000
    44  H          0.41030000       0.37410000       0.83220000
    45  C          0.13721900       0.78198100       0.55633000
    46  C          0.86278100       0.21801900       0.05633000
    47  C          0.63721900       0.71801900       0.55633000
    48  C          0.36278100       0.28198100       0.05633000
    49  C          0.11407900       0.64030100       0.53643000
    50  C          0.88592100       0.35969900       0.03643000
    51  C          0.61407900       0.85969900       0.53643000
    52  C          0.38592100       0.14030100       0.03643000
    53  C          0.07694110       0.56962110       0.42314000
    54  C          0.92305890       0.43037890       0.92314000
    55  C          0.57694110       0.93037890       0.42314000
    56  C          0.42305890       0.06962110       0.92314000
    57  H          0.04490000       0.57680000       0.28080000
    58  H          0.95510000       0.42320000       0.78080000
    59  H          0.54490000       0.92320000       0.28080000
    60  H          0.45510000       0.07680000       0.78080000
    61  C          0.08764120       0.49190110       0.51984000
    62  C          0.91235880       0.50809890       0.01984000
    63  C          0.58764120       0.00809890       0.51984000
    64  C          0.41235880      -0.00809890       0.01984000
    65  H          0.06300000       0.44510000       0.44310000
    66  H          0.93700000       0.55490000       0.94310000
    67  H          0.56300000       0.05490000       0.44310000
    68  H          0.43700000       0.94510000       0.94310000
    69  C          0.13503110       0.47965110       0.73374000
    70  C          0.86496890       0.52034890       0.23374000
    71  C          0.63503110       0.02034890       0.73374000
    72  C          0.36496890       0.97965110       0.23374000
    73  H          0.14100000       0.42500000       0.79930000
    74  H          0.85900000       0.57500000       0.29930000
    75  H          0.64100000       0.07500000       0.79930000
    76  H          0.35900000       0.92500000       0.29930000
    77  C          0.17191100       0.54556100       0.84514000
    78  C          0.82808900       0.45443900       0.34514000
    79  C          0.67191100       0.95443900       0.84514000
    80  C          0.32808900       0.04556100       0.34514000
    81  H          0.20370000       0.53660000      -0.01290000
    82  H          0.79630000       0.46340000       0.48710000
    83  H          0.70370000       0.96340000      -0.01290000
    84  H          0.29630000       0.03660000       0.48710000
    85  C          0.16292900       0.62782100       0.74963000
    86  C          0.83707100       0.37217900       0.24963000
    87  C          0.66292900       0.87217900       0.74963000
    88  C          0.33707100       0.12782100       0.24963000
    89  O          0.33497100       0.77620800       0.32377000
    90  O          0.66502900       0.22379200       0.82377000
    91  O          0.83497100       0.72379200       0.32377000
    92  O          0.16502900       0.27620800       0.82377000
    93  O          0.29818800       0.64423800       0.25927000
    94  O          0.70181200       0.35576200       0.75927000
    95  O          0.79818800       0.85576200       0.25927000
    96  O          0.20181200       0.14423800       0.75927000
    97  H          0.26791500       0.66761500       0.15650000
    98  H          0.73208500       0.33238500       0.65650000
    99  H          0.76791500       0.83238500       0.15650000
   100  H          0.23208500       0.16761500       0.65650000
   101  O          0.48619100       0.64611900       0.03793000
   102  O          0.51380900       0.35388100       0.53793000
   103  O          0.98619100       0.85388100       0.03793000
   104  O          0.01380900       0.14611900       0.53793000
   105  O          0.50890800       0.78389800       0.01933000
   106  O          0.49109200       0.21610200       0.51933000
   107  O          0.00890800       0.71610200       0.01933000
   108  O          0.99109200       0.28389800       0.51933000
   109  H          0.54081500       0.77491400       0.14960000
   110  H          0.45918500       0.22508600       0.64960000
   111  H          0.04081500       0.72508600       0.14960000
   112  H          0.95918500       0.27491400       0.64960000
   113  C          0.33997900       0.70314100       0.37447000
   114  C          0.66002100       0.29685900       0.87447000
   115  C          0.83997900       0.79685900       0.37447000
   116  C          0.16002100       0.20314100       0.87447000
   117  C          0.39332900       0.67022110       0.57497000
   118  C          0.60667100       0.32977890       0.07497000
   119  C          0.89332900       0.82977890       0.57497000
   120  C          0.10667100       0.17022110       0.07497000
   121  C          0.42313100       0.72833110       0.72477000
   122  C          0.57686900       0.27166890       0.22477000
   123  C          0.92313100       0.77166890       0.72477000
   124  C          0.07686900       0.22833110       0.22477000
   125  H          0.40960000       0.78480000       0.69020000
   126  H          0.59040000       0.21520000       0.19020000
   127  H          0.90960000       0.71520000       0.69020000
   128  H          0.09040000       0.28480000       0.19020000
   129  C          0.47551100       0.71299110       0.94027000
   130  C          0.52448900       0.28700890       0.44027000
   131  C          0.97551100       0.78700890       0.94027000
   132  C          0.02448900       0.21299110       0.44027000
   133  C          0.40770130       0.57801110       0.58486000
   134  C          0.59229870       0.42198890       0.08486000
   135  C          0.90770130       0.92198890       0.58486000
   136  C          0.09229870       0.07801110       0.08486000
   137  H          0.44980000       0.56580000       0.70590000
   138  H          0.55020000       0.43420000       0.20590000
   139  H          0.94980000       0.93420000       0.70590000
   140  H          0.05020000       0.06580000       0.20590000
   141  H          0.42530000       0.55820000       0.42420000
   142  H          0.57470000       0.44180000       0.92420000
   143  H          0.92530000       0.94180000       0.42420000
   144  H          0.07470000       0.05820000       0.92420000
   145  H          0.35750000       0.54950000       0.63120000
   146  H          0.64250000       0.45050000       0.13120000
   147  H          0.85750000       0.95050000       0.63120000
   148  H          0.14250000       0.04950000       0.13120000
