data_WOQBOT
_symmetry_space_group_name_H-M    'P1'
_symmetry_Int_Tables_number       1
loop_
_symmetry_equiv_pos_site_id
_symmetry_equiv_pos_as_xyz
1 x,y,z
_cell_length_a                   5.27924
_cell_length_b                   9.05701
_cell_length_c                   15.05401
_cell_angle_alpha                90.0
_cell_angle_beta                 99.1417
_cell_angle_gamma                90.0
loop_
_atom_site_label
_atom_site_type_symbol
_atom_site_fract_x
_atom_site_fract_y
_atom_site_fract_z
     1  O          0.61463000       0.73948160       0.94714100
     2  O          0.88537000       0.23948160       0.55285900
     3  O          0.38537000       0.26051840       0.05285900
     4  O          0.11463000       0.76051840       0.44714100
     5  H          0.48860000       0.78030000       0.96721800
     6  H          0.01140000       0.28030000       0.53278200
     7  H          0.51140000       0.21970000       0.03278200
     8  H         -0.01140000       0.71970000       0.46721800
     9  O          0.66443000       0.61573180       0.07591100
    10  O          0.83557000       0.11573180       0.42408900
    11  O          0.33557000       0.38426820       0.92408900
    12  O          0.16443000       0.88426820       0.57591100
    13  C          0.72413000       0.63682000       0.00350120
    14  C          0.77587000       0.13682000       0.49649880
    15  C          0.27587000       0.36318000      -0.00350120
    16  C          0.22413000       0.86318000       0.50350120
    17  C          0.92704000       0.55242000       0.96586130
    18  C          0.57296000       0.05242000       0.53413870
    19  C          0.07296000       0.44758000       0.03413870
    20  C          0.42704000       0.94758000       0.46586130
    21  H          0.04660000       0.62150000       0.94590000
    22  H          0.45340000       0.12150000       0.55410000
    23  H          0.95340000       0.37850000       0.05410000
    24  H          0.54660000       0.87850000       0.44590000
    25  H          0.84750000       0.49640000       0.91390000
    26  H          0.65250000      -0.00360000       0.58610000
    27  H          0.15250000       0.50360000       0.08610000
    28  H          0.34750000       0.00360000       0.41390000
    29  N          0.20663000       0.90559170      -0.00894900
    30  N          0.29337000       0.40559170       0.50894900
    31  N          0.79337000       0.09440830       0.00894900
    32  N          0.70663000       0.59440830       0.49105100
    33  C          0.05604000       0.05293000       0.76526140
    34  C          0.44396000       0.55293000       0.73473860
    35  C          0.94396000       0.94707000       0.23473860
    36  C          0.55604000       0.44707000       0.26526140
    37  H          0.11220000       0.04480000       0.71000000
    38  H          0.38780000       0.54480000       0.79000000
    39  H          0.88780000       0.95520000       0.29000000
    40  H          0.61220000       0.45520000       0.21000000
    41  C          0.17104000       0.97242000       0.83560130
    42  C          0.32896000       0.47242000       0.66439870
    43  C          0.82896000       0.02758000       0.16439870
    44  C          0.67104000       0.52758000       0.33560130
    45  H          0.30480000       0.90910000       0.82830000
    46  H          0.19520000       0.40910000       0.67170000
    47  H          0.69520000       0.09090000       0.17170000
    48  H          0.80480000       0.59090000       0.32830000
    49  C          0.08903000       0.98392000       0.92094120
    50  C          0.41097000       0.48392000       0.57905880
    51  C          0.91097000       0.01608000       0.07905880
    52  C          0.58903000       0.51608000       0.42094120
    53  C          0.12113000       0.91962000       0.07016120
    54  C          0.37887000       0.41962000       0.42983880
    55  C          0.87887000       0.08038000       0.92983880
    56  C          0.62113000       0.58038000       0.57016120
    57  C          0.23774000       0.83742000       0.14617130
    58  C          0.26226000       0.33742000       0.35382870
    59  C          0.76226000       0.16258000       0.85382870
    60  C          0.73774000       0.66258000       0.64617130
    61  H          0.37440000       0.77470000       0.14140000
    62  H          0.12560000       0.27470000       0.35860000
    63  H          0.62560000       0.22530000       0.85860000
    64  H          0.87440000       0.72530000       0.64140000
    65  C          0.85016000       0.14973000       0.77442140
    66  C          0.64984000       0.64973000       0.72557860
    67  C          0.14984000       0.85027000       0.22557860
    68  C          0.35016000       0.35027000       0.27442140
    69  H          0.77460000       0.20500000       0.72520000
    70  H          0.72540000       0.70500000       0.77480000
    71  H          0.22540000       0.79500000       0.27480000
    72  H          0.27460000       0.29500000       0.22520000
