data_WOSDER
_symmetry_space_group_name_H-M    'P1'
_symmetry_Int_Tables_number       1
loop_
_symmetry_equiv_pos_site_id
_symmetry_equiv_pos_as_xyz
1 x,y,z
_cell_length_a                   10.85034
_cell_length_b                   11.69514
_cell_length_c                   12.00774
_cell_angle_alpha                118.2662
_cell_angle_beta                 90.1462
_cell_angle_gamma                115.2852
loop_
_atom_site_label
_atom_site_type_symbol
_atom_site_fract_x
_atom_site_fract_y
_atom_site_fract_z
     1  Br         0.34342200       0.16627200       0.51804200
     2  Br         0.65657800       0.83372800       0.48195800
     3  P          0.39556300       0.81173300       0.16074300
     4  P          0.60443700       0.18826700       0.83925700
     5  C          0.52746130       0.97438130       0.30302120
     6  C          0.47253870       0.02561870       0.69697880
     7  H          0.59791700       0.03786300       0.27756300
     8  H          0.40208300       0.96213700       0.72243700
     9  H          0.57330500       0.94604700       0.34815300
    10  H          0.42669500       0.05395300       0.65184700
    11  H          0.48376700       0.02877000       0.36167600
    12  H          0.51623300       0.97123000       0.63832400
    13  C          0.27020130       0.69479130       0.20913120
    14  C          0.72979870       0.30520870       0.79086880
    15  C          0.28797160       0.73576170       0.33963140
    16  C          0.71202840       0.26423830       0.66036860
    17  H          0.36578000       0.82746300       0.40461700
    18  H          0.63422000       0.17253700       0.59538300
    19  C          0.19177180       0.64242000       0.37477160
    20  C          0.80822820       0.35758000       0.62522840
    21  H          0.20352500       0.67092700       0.46411200
    22  H          0.79647500       0.32907300       0.53588800
    23  C          0.07931170       0.50861180       0.28100160
    24  C          0.92068830       0.49138820       0.71899840
    25  H          0.01421500       0.44479800       0.30559400
    26  H         -0.01421500       0.55520200       0.69440600
    27  C          0.06137160       0.46731160       0.15072150
    28  C          0.93862840       0.53268840       0.84927850
    29  H         -0.01597900       0.37491000       0.08601200
    30  H          0.01597900       0.62509000       0.91398800
    31  C          0.15556140       0.56005150       0.11460130
    32  C          0.84443860       0.43994850       0.88539870
    33  H          0.14218500       0.53196600       0.02535000
    34  H          0.85781500       0.46803400       0.97465000
    35  C          0.30296130       0.86256130       0.08425120
    36  C          0.69703870       0.13743870       0.91574880
    37  C          0.31060150       0.84424160       0.96168860
    38  C          0.68939850       0.15575840       0.03831140
    39  H          0.36909200       0.80702300       0.91627700
    40  H          0.63090800       0.19297700       0.08372300
    41  C          0.23204170       0.88082000       0.90616830
    42  C          0.76795830       0.11918000       0.09383170
    43  H          0.23459100       0.86579100       0.82142000
    44  H          0.76540900       0.13420900       0.17858000
    45  C          0.15036170       0.93880190       0.97399830
    46  C          0.84963830       0.06119810       0.02600170
    47  H          0.09716800       0.96390000       0.93567000
    48  H          0.90283200       0.03610000       0.06433000
    49  C          0.14514180       0.96084180       0.09766160
    50  C          0.85485820       0.03915820       0.90233840
    51  H          0.09012100       0.00270500       0.14443700
    52  H          0.90987900      -0.00270500       0.85556300
    53  C          0.22056150       0.92154160       0.15284130
    54  C          0.77943850       0.07845840       0.84715870
    55  H          0.21607700       0.93472200       0.23682100
    56  H          0.78392300       0.06527800       0.76317900
    57  C          0.47454140       0.71620130       0.04741120
    58  C          0.52545860       0.28379870       0.95258880
    59  C          0.61723160       0.76419170       0.08340150
    60  C          0.38276840       0.23580830       0.91659850
    61  H          0.67324600       0.84752600       0.16786000
    62  H          0.32675400       0.15247400       0.83214000
    63  C          0.67782000       0.68972000      -0.00475180
    64  C          0.32218000       0.31028000       0.00475180
    65  H          0.77557100       0.72249400       0.01954500
    66  H          0.22442900       0.27750600       0.98045500
    67  C          0.59662000       0.56818180       0.87242840
    68  C          0.40338000       0.43181820       0.12757160
    69  H          0.63893100       0.51856300       0.81223300
    70  H          0.36106900       0.48143700       0.18776700
    71  C          0.45472000       0.51890170       0.83712850
    72  C          0.54528000       0.48109830       0.16287150
    73  H          0.39892400       0.43411300       0.75324200
    74  H          0.60107600       0.56588700       0.24675800
    75  C          0.39275170       0.59255160       0.92356860
    76  C          0.60724830       0.40744840       0.07643140
    77  H          0.29487100       0.55896400       0.89860700
    78  H          0.70512900       0.44103600       0.10139300
    79  N          0.61092000       0.30262190       0.33074160
    80  N          0.38908000       0.69737810       0.66925840
    81  N          0.20592000       0.31185190       0.33242000
    82  N          0.79408000       0.68814810       0.66758000
    83  C          0.54492000       0.35605180       0.38192160
    84  C          0.45508000       0.64394820       0.61807840
    85  C          0.46666180       0.43131160       0.44547160
    86  C          0.53333820       0.56868840       0.55452840
    87  C          0.32052000       0.36179190       0.38354180
    88  C          0.67948000       0.63820810       0.61645820
    89  N          0.06965170       0.27015190       0.76001150
    90  N          0.93034830       0.72984810       0.23998850
    91  N          0.89566830       0.09367190       0.34578160
    92  N          0.10433170       0.90632810       0.65421840
    93  C          0.03660170       0.17812000       0.65258160
    94  C          0.96339830       0.82188000       0.34741840
    95  C         -0.00640150       0.06050180       0.51761140
    96  C          0.00640150       0.93949820       0.48238860
    97  C          0.93806840       0.07875190       0.42206160
    98  C          0.06193160       0.92124810       0.57793840
