data_WOTTIK
_symmetry_space_group_name_H-M    'P1'
_symmetry_Int_Tables_number       1
loop_
_symmetry_equiv_pos_site_id
_symmetry_equiv_pos_as_xyz
1 x,y,z
_cell_length_a                   8.51183
_cell_length_b                   18.30837
_cell_length_c                   13.38135
_cell_angle_alpha                90.0
_cell_angle_beta                 97.3152
_cell_angle_gamma                90.0
loop_
_atom_site_label
_atom_site_type_symbol
_atom_site_fract_x
_atom_site_fract_y
_atom_site_fract_z
     1  I          0.29081200       0.84096200       0.12277200
     2  I          0.20918800       0.34096200       0.37722800
     3  I          0.70918800       0.15903800       0.87722800
     4  I          0.79081200       0.65903800       0.62277200
     5  Br         0.00191400       0.86175200       0.26927200
     6  Br         0.49808600       0.36175200       0.23072800
     7  Br        -0.00191400       0.13824800       0.73072800
     8  Br         0.50191400       0.63824800       0.76927200
     9  Br         0.62597400       0.86717200       0.27399200
    10  Br         0.87402600       0.36717200       0.22600800
    11  Br         0.37402600       0.13282800       0.72600800
    12  Br         0.12597400       0.63282800       0.77399200
    13  Br         0.85159400       0.80994200       0.46688200
    14  Br         0.64840600       0.30994200       0.03311800
    15  Br         0.14840600       0.19005800       0.53311800
    16  Br         0.35159400       0.69005800       0.96688200
    17  N          0.85254000       0.01330190       0.41442000
    18  N          0.64746000       0.51330190       0.08558000
    19  N          0.14746000       0.98669810       0.58558000
    20  N          0.35254000       0.48669810       0.91442000
    21  C          0.84564000       0.95462000       0.39052000
    22  C          0.65436000       0.45462000       0.10948000
    23  C          0.15436000       0.04538000       0.60948000
    24  C          0.34564000       0.54538000       0.89052000
    25  C          0.83404000       0.87923190       0.35462000
    26  C          0.66596000       0.37923190       0.14538000
    27  C          0.16596000       0.12076810       0.64538000
    28  C          0.33404000       0.62076810       0.85462000
    29  N          0.35423000       0.63130150       0.35062000
    30  N          0.14577000       0.13130150       0.14938000
    31  N          0.64577000       0.36869850       0.64938000
    32  N          0.85423000       0.86869850       0.85062000
    33  C          0.52664000       0.62276190       0.33302000
    34  C          0.97336000       0.12276190       0.16698000
    35  C          0.47336000       0.37723810       0.66698000
    36  C          0.02664000       0.87723810       0.83302000
    37  H          0.59450000       0.63840000       0.39490000
    38  H          0.90550000       0.13840000       0.10510000
    39  H          0.40550000       0.36160000       0.60510000
    40  H          0.09450000       0.86160000       0.89490000
    41  H          0.54730000       0.57020000       0.32320000
    42  H          0.95270000       0.07020000       0.17680000
    43  H          0.45270000       0.42980000       0.67680000
    44  H          0.04730000       0.92980000       0.82320000
    45  C          0.57774000       0.66422000       0.24503000
    46  C          0.92226000       0.16422000       0.25497000
    47  C          0.42226000       0.33578000       0.75497000
    48  C          0.07774000       0.83578000       0.74503000
    49  H          0.54470000       0.71590000       0.24750000
    50  H          0.95530000       0.21590000       0.25250000
    51  H          0.45530000       0.28410000       0.75250000
    52  H          0.04470000       0.78410000       0.74750000
    53  H          0.52760000       0.64280000       0.18080000
    54  H          0.97240000       0.14280000       0.31920000
    55  H          0.47240000       0.35720000       0.81920000
    56  H          0.02760000       0.85720000       0.68080000
    57  C          0.75745000       0.65932000       0.25123000
    58  C          0.74255000       0.15932000       0.24877000
    59  C          0.24255000       0.34068000       0.74877000
    60  C          0.25745000       0.84068000       0.75123000
    61  H          0.79290000       0.68650000       0.19520000
    62  H          0.70710000       0.18650000       0.30480000
    63  H          0.20710000       0.31350000       0.80480000
    64  H          0.29290000       0.81350000       0.69520000
    65  H          0.78890000       0.60800000       0.24720000
    66  H          0.71110000       0.10800000       0.25280000
    67  H          0.21110000       0.39200000       0.75280000
    68  H          0.28890000       0.89200000       0.74720000
    69  H          0.80590000       0.68020000       0.31520000
    70  H          0.69410000       0.18020000       0.18480000
    71  H          0.19410000       0.31980000       0.68480000
    72  H          0.30590000       0.81980000       0.81520000
    73  C          0.31534000       0.71021170       0.37612000
    74  C          0.18466000       0.21021170       0.12388000
    75  C          0.68466000       0.28978830       0.62388000
    76  C          0.81534000       0.78978830       0.87612000
    77  H          0.33200000       0.74140000       0.31790000
    78  H          0.16800000       0.24140000       0.18210000
    79  H          0.66800000       0.25860000       0.68210000
    80  H          0.83200000       0.75860000       0.81790000
    81  H          0.20150000       0.71290000       0.38420000
    82  H          0.29850000       0.21290000       0.11580000
    83  H          0.79850000       0.28710000       0.61580000
    84  H          0.70150000       0.78710000       0.88420000
    85  C          0.40954000       0.74183190       0.46942000
    86  C          0.09046000       0.24183190       0.03058000
    87  C          0.59046000       0.25816810       0.53058000
    88  C          0.90954000       0.75816810       0.96942000
    89  H          0.52380000       0.74180000       0.46200000
    90  H          0.97620000       0.24180000       0.03800000
    91  H          0.47620000       0.25820000       0.53800000
    92  H          0.02380000       0.75820000       0.96200000
    93  H          0.39380000       0.71200000       0.52900000
    94  H          0.10620000       0.21200000       0.97100000
    95  H          0.60620000       0.28800000       0.47100000
    96  H          0.89380000       0.78800000       0.02900000
    97  C          0.35305000       0.81962000       0.48313000
    98  C          0.14695000       0.31962000       0.01687000
    99  C          0.64695000       0.18038000       0.51687000
   100  C          0.85305000       0.68038000       0.98313000
   101  H          0.36930000       0.84880000       0.42390000
   102  H          0.13070000       0.34880000       0.07610000
   103  H          0.63070000       0.15120000       0.57610000
   104  H          0.86930000       0.65120000       0.92390000
   105  H          0.41310000       0.84100000       0.54330000
   106  H          0.08690000       0.34100000       0.95670000
   107  H          0.58690000       0.15900000       0.45670000
   108  H          0.91310000       0.65900000       0.04330000
   109  H          0.24010000       0.81910000       0.49080000
   110  H          0.25990000       0.31910000       0.00920000
   111  H          0.75990000       0.18090000       0.50920000
   112  H          0.74010000       0.68090000      -0.00920000
   113  C          0.33384000       0.58089190       0.43742000
   114  C          0.16616000       0.08089190       0.06258000
   115  C          0.66616000       0.41910810       0.56258000
   116  C          0.83384000       0.91910810       0.93742000
   117  H          0.42000000       0.59120000       0.49250000
   118  H          0.08000000       0.09120000       0.00750000
   119  H          0.58000000       0.40880000       0.50750000
   120  H          0.92000000       0.90880000      -0.00750000
   121  H          0.34820000       0.53010000       0.41480000
   122  H          0.15180000       0.03010000       0.08520000
   123  H          0.65180000       0.46990000       0.58520000
   124  H          0.84820000       0.96990000       0.91480000
   125  C          0.17784000       0.58482190       0.48063000
   126  C          0.32216000       0.08482190       0.01937000
   127  C          0.82216000       0.41517810       0.51937000
   128  C          0.67784000       0.91517810       0.98063000
   129  H          0.08840000       0.57690000       0.42670000
   130  H          0.41160000       0.07690000       0.07330000
   131  H          0.91160000       0.42310000       0.57330000
   132  H          0.58840000       0.92310000       0.92670000
   133  H          0.16510000       0.63350000       0.51080000
   134  H          0.33490000       0.13350000       0.98920000
   135  H          0.83490000       0.36650000       0.48920000
   136  H          0.66510000       0.86650000       0.01080000
   137  C          0.17934000       0.52559190       0.56072000
   138  C          0.32066000       0.02559190       0.93928000
   139  C          0.82066000       0.47440810       0.43928000
   140  C          0.67934000       0.97440810       0.06072000
   141  H          0.17970000       0.47740000       0.52880000
   142  H          0.32030000       0.97740000       0.97120000
   143  H          0.82030000       0.52260000       0.47120000
   144  H          0.67970000       0.02260000       0.02880000
   145  H          0.08480000       0.53030000       0.59510000
   146  H          0.41520000       0.03030000       0.90490000
   147  H          0.91520000       0.46970000       0.40490000
   148  H          0.58480000       0.96970000       0.09510000
   149  H          0.27440000       0.53090000       0.60980000
   150  H          0.22560000       0.03090000       0.89020000
   151  H          0.72560000       0.46910000       0.39020000
   152  H          0.77440000       0.96910000       0.10980000
   153  C          0.24144000       0.61265180       0.25622000
   154  C          0.25856000       0.11265180       0.24378000
   155  C          0.75856000       0.38734820       0.74378000
   156  C          0.74144000       0.88734820       0.75622000
   157  H          0.13150000       0.61710000       0.27240000
   158  H          0.36850000       0.11710000       0.22760000
   159  H          0.86850000       0.38290000       0.72760000
   160  H          0.63150000       0.88290000       0.77240000
   161  H          0.25520000       0.64960000       0.20400000
   162  H          0.24480000       0.14960000       0.29600000
   163  H          0.74480000       0.35040000       0.79600000
   164  H          0.75520000       0.85040000       0.70400000
   165  C          0.26034000       0.53753190       0.21143000
   166  C          0.23966000       0.03753190       0.28857000
   167  C          0.73966000       0.46246810       0.78857000
   168  C          0.76034000       0.96246810       0.71143000
   169  H          0.24950000       0.49950000       0.26270000
   170  H          0.25050000      -0.00050000       0.23730000
   171  H          0.75050000       0.50050000       0.73730000
   172  H          0.74950000       0.00050000       0.76270000
   173  H          0.36690000       0.53300000       0.18980000
   174  H          0.13310000       0.03300000       0.31020000
   175  H          0.63310000       0.46700000       0.81020000
   176  H          0.86690000       0.96700000       0.68980000
   177  C          0.13354000       0.52682000       0.12113000
   178  C          0.36646000       0.02682000       0.37887000
   179  C          0.86646000       0.47318000       0.87887000
   180  C          0.63354000       0.97318000       0.62113000
   181  H          0.14340000       0.56510000       0.07120000
   182  H          0.35660000       0.06510000       0.42880000
   183  H          0.85660000       0.43490000       0.92880000
   184  H          0.64340000       0.93490000       0.57120000
   185  H          0.02840000       0.52940000       0.14340000
   186  H          0.47160000       0.02940000       0.35660000
   187  H          0.97160000       0.47060000       0.85660000
   188  H          0.52840000       0.97060000       0.64340000
   189  H          0.14740000       0.47890000       0.09070000
   190  H          0.35260000       0.97890000       0.40930000
   191  H          0.85260000       0.52110000       0.90930000
   192  H          0.64740000       0.02110000       0.59070000
