data_WOVBIV
_symmetry_space_group_name_H-M    'P1'
_symmetry_Int_Tables_number       1
loop_
_symmetry_equiv_pos_site_id
_symmetry_equiv_pos_as_xyz
1 x,y,z
_cell_length_a                   9.35914
_cell_length_b                   9.43715
_cell_length_c                   10.11065
_cell_angle_alpha                102.5814
_cell_angle_beta                 92.9294
_cell_angle_gamma                102.5734
loop_
_atom_site_label
_atom_site_type_symbol
_atom_site_fract_x
_atom_site_fract_y
_atom_site_fract_z
     1  N          0.41853160       0.38719180       0.79478150
     2  N          0.58146840       0.61280820       0.20521850
     3  H          0.49150000       0.39390000       0.74630000
     4  H          0.50850000       0.60610000       0.25370000
     5  C          0.47592000       0.65542000       0.85702000
     6  C          0.52408000       0.34458000       0.14298000
     7  H          0.55370000       0.66090000       0.80320000
     8  H          0.44630000       0.33910000       0.19680000
     9  C          0.44472000       0.78152000       0.93032000
    10  C          0.55528000       0.21848000       0.06968000
    11  H          0.50220000       0.87390000       0.92620000
    12  H          0.49780000       0.12610000       0.07380000
    13  C          0.32723000       0.77602000       0.01262000
    14  C          0.67277000       0.22398000      -0.01262000
    15  H          0.30920000       0.86430000       0.06270000
    16  H          0.69080000       0.13570000       0.93730000
    17  C          0.24042000       0.64302000       0.01912000
    18  C          0.75958000       0.35698000       0.98088000
    19  H          0.16280000       0.64080000       0.07310000
    20  H          0.83720000       0.35920000       0.92690000
    21  C          0.26712000       0.50632000       0.94356180
    22  C          0.73288000       0.49368000       0.05643820
    23  C          0.18252000       0.36612000       0.94405190
    24  C          0.81748000       0.63388000       0.05594810
    25  H          0.10100000       0.35890000      -0.00670000
    26  H          0.89900000       0.64110000       0.00670000
    27  C          0.21632000       0.23622000       0.87274190
    28  C          0.78368000       0.76378000       0.12725810
    29  C          0.13342000       0.08972000       0.87072000
    30  C          0.86658000       0.91028000       0.12928000
    31  H          0.05040000       0.07800000       0.91770000
    32  H          0.94960000       0.92200000       0.08230000
    33  C          0.17393000       0.96777000       0.80132000
    34  C          0.82607000       0.03223000       0.19868000
    35  H          0.11820000       0.87300000       0.80020000
    36  H          0.88180000       0.12700000       0.19980000
    37  C          0.30093000      -0.01642000       0.73032000
    38  C          0.69907000       0.01642000       0.26968000
    39  H          0.32840000       0.89850000       0.68460000
    40  H          0.67160000       0.10150000       0.31540000
    41  C          0.38312000       0.12012000       0.72762000
    42  C          0.61688000       0.87988000       0.27238000
    43  H          0.46620000       0.12870000       0.68040000
    44  H          0.53380000       0.87130000       0.31960000
    45  C          0.34102000       0.24952000       0.79748180
    46  C          0.65898000       0.75048000       0.20251820
    47  C          0.38822000       0.51522000       0.86381180
    48  C          0.61178000       0.48478000       0.13618820
    49  O          0.60291140       0.34549170       0.44697140
    50  O          0.39708860       0.65450830       0.55302860
    51  O          0.66247140       0.43920160       0.67028140
    52  O          0.33752860       0.56079840       0.32971860
    53  O          0.92840150       0.57414190       0.76347130
    54  O          0.07159850       0.42585810       0.23652870
    55  H          0.84000000       0.54320000       0.76660000
    56  H          0.16000000       0.45680000       0.23340000
    57  C          0.89348190       0.42512000       0.39358180
    58  C          0.10651810       0.57488000       0.60641820
    59  H          0.82180000       0.37490000       0.32170000
    60  H          0.17820000       0.62510000       0.67830000
    61  C          0.85271190       0.45881190       0.52453170
    62  C          0.14728810       0.54118810       0.47546830
    63  C          0.69442000       0.41142000       0.54846190
    64  C          0.30558000       0.58858000       0.45153810
    65  C          0.96122000       0.53552000       0.63228170
    66  C          0.03878000       0.46448000       0.36771830
    67  O          0.86706840       0.18322160       0.67900160
    68  O          0.13293160       0.81677840       0.32099840
    69  H          0.78960000       0.13510000       0.69720000
    70  H          0.21040000       0.86490000       0.30280000
    71  O          0.33512140       0.26655150       0.47314150
    72  O          0.66487860       0.73344850       0.52685850
    73  H          0.42300000       0.28640000       0.46280000
    74  H          0.57700000       0.71360000       0.53720000
    75  O          0.33634170       0.05419180       0.32518180
    76  O          0.66365830       0.94580820       0.67481820
    77  C          0.13156190       0.06372000       0.45407180
    78  C          0.86843810       0.93628000       0.54592820
    79  C          0.06052000       0.15232000       0.54319190
    80  C          0.93948000       0.84768000       0.45680810
    81  H          0.10090000       0.25450000       0.57170000
    82  H          0.89910000       0.74550000       0.42830000
    83  C          0.93038000       0.09102000       0.59015190
    84  C          0.06962000       0.90898000       0.40984810
    85  C          0.27642000       0.12842000       0.41112000
    86  C          0.72358000       0.87158000       0.58888000
