data_WOZLAC
_symmetry_space_group_name_H-M    'P1'
_symmetry_Int_Tables_number       1
loop_
_symmetry_equiv_pos_site_id
_symmetry_equiv_pos_as_xyz
1 x,y,z
_cell_length_a                   8.16803
_cell_length_b                   9.12904
_cell_length_c                   9.81183
_cell_angle_alpha                103.7273
_cell_angle_beta                 107.1653
_cell_angle_gamma                112.1804
loop_
_atom_site_label
_atom_site_type_symbol
_atom_site_fract_x
_atom_site_fract_y
_atom_site_fract_z
     1  I          0.66832300       0.55170300       0.83016200
     2  I          0.33167700       0.44829700       0.16983800
     3  Cl         0.55433140       0.87164130       0.82188120
     4  Cl         0.44566860       0.12835870       0.17811880
     5  Cl         0.84204140       0.25822120       0.96798120
     6  Cl         0.15795860       0.74177880       0.03201880
     7  C          0.93186000       0.11685000      -0.01315000
     8  C          0.06814000       0.88315000       0.01315000
     9  C          0.80106000       0.94015000       0.91965000
    10  C          0.19894000       0.05985000       0.08035000
    11  C          0.86686000       0.82025000       0.93195000
    12  C          0.13314000       0.17975000       0.06805000
    13  N          0.41766000       0.21045000       0.69205000
    14  N          0.58234000       0.78955000       0.30795000
    15  N         -0.02646000       0.69545000       0.45055000
    16  N          0.02646000       0.30455000       0.54945000
    17  C          0.37276000       0.11846000       0.54495000
    18  C          0.62724000       0.88154000       0.45505000
    19  H          0.44396000       0.17426000       0.49485000
    20  H          0.55604000       0.82574000       0.50515000
    21  C          0.11836000       0.86365000       0.52915000
    22  C          0.88164000       0.13635000       0.47085000
    23  C          0.23136000       0.94964000       0.46215000
    24  C          0.76864000       0.05036000       0.53785000
    25  H          0.21006000       0.89104000       0.35945000
    26  H          0.78994000       0.10896000       0.64055000
    27  C          0.31256000       0.12615000       0.75845000
    28  C          0.68744000       0.87385000       0.24155000
    29  H          0.34246000       0.18695000       0.86315000
    30  H          0.65754000       0.81305000       0.13685000
    31  C          0.16606000       0.95894000       0.68495000
    32  C          0.83394000       0.04106000       0.31505000
    33  H          0.09676000       0.90714000       0.73795000
    34  H          0.90324000       0.09286000       0.26205000
    35  C          0.85613000       0.61214000       0.52296000
    36  C          0.14387000       0.38786000       0.47704000
    37  H          0.94202000       0.61860000       0.62120000
    38  H          0.05798000       0.38140000       0.37880000
    39  H          0.78160000       0.66970000       0.54440000
    40  H          0.21840000       0.33030000       0.45560000
    41  H          0.76560000       0.49118600       0.45320000
    42  H          0.23440000       0.50881400       0.54680000
    43  C          0.91673000       0.60844000       0.28665000
    44  C          0.08327000       0.39156000       0.71335000
    45  H          0.88050000       0.67470000       0.23038000
    46  H          0.11950000       0.32530000       0.76962000
    47  H          0.02720000       0.59760000       0.27286000
    48  H         -0.02720000       0.40240000       0.72714000
    49  H          0.80460000       0.49358100       0.24611200
    50  H          0.19540000       0.50641900       0.75388800
