data_WOZLEG
_symmetry_space_group_name_H-M    'P1'
_symmetry_Int_Tables_number       1
loop_
_symmetry_equiv_pos_site_id
_symmetry_equiv_pos_as_xyz
1 x,y,z
_cell_length_a                   8.33612
_cell_length_b                   9.30893
_cell_length_c                   9.82042
_cell_angle_alpha                102.4842
_cell_angle_beta                 108.3992
_cell_angle_gamma                113.0642
loop_
_atom_site_label
_atom_site_type_symbol
_atom_site_fract_x
_atom_site_fract_y
_atom_site_fract_z
     1  I          0.66402400       0.55739300       0.82970300
     2  I          0.33597600       0.44260700       0.17029700
     3  Br         0.15967700       0.73203600       0.03222600
     4  Br         0.84032300       0.26796400       0.96777400
     5  Br         0.46760700       0.13485600       0.18536600
     6  Br         0.53239300       0.86514400       0.81463400
     7  C          0.06457000       0.88566000       0.01336000
     8  C          0.93543000       0.11434000      -0.01336000
     9  C          0.19817000       0.05966000       0.07916000
    10  C          0.80183000       0.94034000       0.92084000
    11  C          0.86507000       0.82206000       0.93206000
    12  C          0.13493000       0.17794000       0.06794000
    13  N          0.41237000       0.21936000       0.69426000
    14  N          0.58763000       0.78064000       0.30574000
    15  N         -0.01547000       0.70474000       0.46406000
    16  N          0.01547000       0.29526000       0.53594000
    17  C          0.12317000       0.87164000       0.53826000
    18  C          0.87683000       0.12836000       0.46174000
    19  C          0.16258000       0.97053000       0.68796000
    20  C          0.83742000       0.02947000       0.31204000
    21  H          0.09098000       0.92113000       0.73956000
    22  H          0.90902000       0.07887000       0.26044000
    23  C          0.23728000       0.95593000       0.47116000
    24  C          0.76272000       0.04407000       0.52884000
    25  H          0.21838000       0.89683000       0.37056000
    26  H          0.78162000       0.10317000       0.62944000
    27  C          0.37678000       0.12517000       0.55306000
    28  C          0.62322000       0.87483000       0.44694000
    29  H          0.45298000       0.17837000       0.50586000
    30  H          0.54702000       0.82163000       0.49414000
    31  C          0.30518000       0.13956000       0.75946000
    32  C          0.69482000       0.86044000       0.24054000
    33  H          0.32898000       0.20286000       0.86056000
    34  H          0.67102000       0.79714000       0.13944000
    35  C          0.86521000       0.62473000       0.53517000
    36  C          0.13479000       0.37527000       0.46483000
    37  H          0.94941000       0.63740000       0.63830000
    38  H          0.05059000       0.36260000       0.36170000
    39  H          0.78640000       0.67760000       0.54660000
    40  H          0.21360000       0.32240000       0.45340000
    41  H          0.77850000       0.50378500       0.46930000
    42  H          0.22150000       0.49621500       0.53070000
    43  C          0.93381000       0.61393000       0.30277000
    44  C          0.06619000       0.38607000       0.69723000
    45  H          0.89630000       0.67360000       0.23921300
    46  H          0.10370000       0.32640000       0.76078700
    47  H          0.04630000       0.60740000       0.29681100
    48  H          0.95370000       0.39260000       0.70318900
    49  H          0.82450000       0.49880000       0.26420000
    50  H          0.17550000       0.50120000       0.73580000
