data_WUBZIF01
_symmetry_space_group_name_H-M    'P1'
_symmetry_Int_Tables_number       1
loop_
_symmetry_equiv_pos_site_id
_symmetry_equiv_pos_as_xyz
1 x,y,z
_cell_length_a                   8.1342
_cell_length_b                   9.9643
_cell_length_c                   23.8496
_cell_angle_alpha                90.0
_cell_angle_beta                 90.0
_cell_angle_gamma                90.0
loop_
_atom_site_label
_atom_site_type_symbol
_atom_site_fract_x
_atom_site_fract_y
_atom_site_fract_z
     1  Br         0.27281600       0.70906500       0.42733200
     2  Br         0.22718400       0.29093500       0.92733200
     3  Br         0.72718400       0.20906500       0.07266800
     4  Br         0.77281600       0.79093500       0.57266800
     5  Br         0.72718400       0.29093500       0.57266800
     6  Br         0.77281600       0.70906500       0.07266800
     7  Br         0.27281600       0.79093500       0.92733200
     8  Br         0.22718400       0.20906500       0.42733200
     9  Br         0.72846700       0.28337500       0.43199200
    10  Br         0.77153300       0.71662500       0.93199200
    11  Br         0.27153300       0.78337500       0.06800800
    12  Br         0.22846700       0.21662500       0.56800800
    13  Br         0.27153300       0.71662500       0.56800800
    14  Br         0.22846700       0.28337500       0.06800800
    15  Br         0.72846700       0.21662500       0.93199200
    16  Br         0.77153300       0.78337500       0.43199200
    17  O          0.41634000       0.41613000       0.35374120
    18  O          0.08366000       0.58387000       0.85374120
    19  O          0.58366000       0.91613000       0.14625880
    20  O          0.91634000       0.08387000       0.64625880
    21  O          0.58366000       0.58387000       0.64625880
    22  O          0.91634000       0.41613000       0.14625880
    23  O          0.41634000       0.08387000       0.85374120
    24  O          0.08366000       0.91613000       0.35374120
    25  H          0.43570000       0.40450000       0.32027000
    26  H          0.06430000       0.59550000       0.82027000
    27  H          0.56430000       0.90450000       0.17973000
    28  H          0.93570000       0.09550000       0.67973000
    29  H          0.56430000       0.59550000       0.67973000
    30  H          0.93570000       0.40450000       0.17973000
    31  H          0.43570000       0.09550000       0.82027000
    32  H          0.06430000       0.90450000       0.32027000
    33  O          0.61154000       0.57373000       0.35468120
    34  O          0.88846000       0.42627000       0.85468120
    35  O          0.38846000       0.07373000       0.14531880
    36  O          0.11154000       0.92627000       0.64531880
    37  O          0.38846000       0.42627000       0.64531880
    38  O          0.11154000       0.57373000       0.14531880
    39  O          0.61154000       0.92627000       0.85468120
    40  O          0.88846000       0.07373000       0.35468120
    41  C          0.51585000       0.50013000       0.37813160
    42  C         -0.01585000       0.49987000       0.87813160
    43  C          0.48415000       0.00013000       0.12186840
    44  C          0.01585000      -0.00013000       0.62186840
    45  C          0.48415000       0.49987000       0.62186840
    46  C          0.01585000       0.50013000       0.12186840
    47  C          0.51585000      -0.00013000       0.87813160
    48  C         -0.01585000       0.00013000       0.37813160
    49  C          0.50254000       0.49823000       0.44115160
    50  C         -0.00254000       0.50177000       0.94115160
    51  C          0.49746000      -0.00177000       0.05884840
    52  C          0.00254000       0.00177000       0.55884840
    53  C          0.49746000       0.50177000       0.55884840
    54  C          0.00254000       0.49823000       0.05884840
    55  C          0.50254000       0.00177000       0.94115160
    56  C         -0.00254000      -0.00177000       0.44115160
    57  C          0.40345000       0.58914000       0.46982150
    58  C          0.09655000       0.41086000       0.96982150
    59  C          0.59655000       0.08914000       0.03017850
    60  C          0.90345000       0.91086000       0.53017850
    61  C          0.59655000       0.41086000       0.53017850
    62  C          0.90345000       0.58914000       0.03017850
    63  C          0.40345000       0.91086000       0.96982150
    64  C          0.09655000       0.08914000       0.46982150
    65  C          0.59915000       0.40854000       0.47215160
    66  C          0.90085000       0.59146000       0.97215160
    67  C          0.40085000       0.90854000       0.02784840
    68  C          0.09915000       0.09146000       0.52784840
    69  C          0.40085000       0.59146000       0.52784840
    70  C          0.09915000       0.40854000       0.02784840
    71  C          0.59915000       0.09146000       0.97215160
    72  C          0.90085000       0.90854000       0.47215160
    73  H          0.56570000       0.59650000       0.67987000
    74  H          0.93430000       0.40350000       0.17987000
    75  H          0.43430000       0.09650000       0.82013000
    76  H          0.06570000       0.90350000       0.32013000
    77  H          0.43430000       0.40350000       0.32013000
    78  H          0.06570000       0.59650000       0.82013000
    79  H          0.56570000       0.90350000       0.17987000
    80  H          0.93430000       0.09650000       0.67987000
    81  O          0.51897000       0.35084000       0.25648140
    82  O          0.98103000       0.64916000       0.75648140
    83  O          0.48103000       0.85084000       0.24351860
    84  O          0.01897000       0.14916000       0.74351860
    85  O          0.48103000       0.64916000       0.74351860
    86  O          0.01897000       0.35084000       0.24351860
    87  O          0.51897000       0.14916000       0.75648140
    88  O          0.98103000       0.85084000       0.25648140
    89  H          0.56370000       0.27730000       0.25820000
    90  H          0.93630000       0.72270000       0.75820000
    91  H          0.43630000       0.77730000       0.24180000
    92  H          0.06370000       0.22270000       0.74180000
    93  H          0.43630000       0.72270000       0.74180000
    94  H          0.06370000       0.27730000       0.24180000
    95  H          0.56370000       0.22270000       0.75820000
    96  H          0.93630000       0.77730000       0.25820000
    97  O          0.37385000       0.60004000       0.22381170
    98  O          0.12615000       0.39996000       0.72381170
    99  O          0.62615000       0.10004000       0.27618830
   100  O          0.87385000       0.89996000       0.77618830
   101  O          0.62615000       0.39996000       0.77618830
   102  O          0.87385000       0.60004000       0.27618830
   103  O          0.37385000       0.89996000       0.72381170
   104  O          0.12615000       0.10004000       0.22381170
   105  H          0.29050000       0.58890000       0.20630000
   106  H          0.20950000       0.41110000       0.70630000
   107  H          0.70950000       0.08890000       0.29370000
   108  H          0.79050000       0.91110000       0.79370000
   109  H          0.70950000       0.41110000       0.79370000
   110  H          0.79050000       0.58890000       0.29370000
   111  H          0.29050000       0.91110000       0.70630000
   112  H          0.20950000       0.08890000       0.20630000
   113  C          0.47788000       0.38055000       0.20043190
   114  C          0.02212000       0.61945000       0.70043190
   115  C          0.52212000       0.88055000       0.29956810
   116  C          0.97788000       0.11945000       0.79956810
   117  C          0.52212000       0.61945000       0.79956810
   118  C          0.97788000       0.38055000       0.29956810
   119  C          0.47788000       0.11945000       0.70043190
   120  C          0.02212000       0.88055000       0.20043190
   121  H          0.36674400       0.35014400       0.19268300
   122  H          0.13325600       0.64985600       0.69268300
   123  H          0.63325600       0.85014400       0.30731700
   124  H          0.86674400       0.14985600       0.80731700
   125  H          0.63325600       0.64985600       0.80731700
   126  H          0.86674400       0.35014400       0.30731700
   127  H          0.36674400       0.14985600       0.69268300
   128  H          0.13325600       0.85014400       0.19268300
   129  H          0.55197700       0.33363500       0.17533000
   130  H          0.94802300       0.66636500       0.67533000
   131  H          0.44802300       0.83363500       0.32467000
   132  H          0.05197700       0.16636500       0.82467000
   133  H          0.44802300       0.66636500       0.82467000
   134  H          0.05197700       0.33363500       0.32467000
   135  H          0.55197700       0.16636500       0.67533000
   136  H          0.94802300       0.83363500       0.17533000
   137  C          0.48947000       0.52735000       0.19052000
   138  C          0.01053000       0.47265000       0.69052000
   139  C          0.51053000       0.02735000       0.30948000
   140  C         -0.01053000       0.97265000       0.80948000
   141  C          0.51053000       0.47265000       0.80948000
   142  C         -0.01053000       0.52735000       0.30948000
   143  C          0.48947000       0.97265000       0.69052000
   144  C          0.01053000       0.02735000       0.19052000
   145  H          0.59974800       0.55747000       0.19941800
   146  H          0.90025200       0.44253000       0.69941800
   147  H          0.40025200       0.05747000       0.30058200
   148  H          0.09974800       0.94253000       0.80058200
   149  H          0.40025200       0.44253000       0.80058200
   150  H          0.09974800       0.55747000       0.30058200
   151  H          0.59974800       0.94253000       0.69941800
   152  H          0.90025200       0.05747000       0.19941800
   153  H          0.46932700       0.54575300       0.15119700
   154  H          0.03067300       0.45424700       0.65119700
   155  H          0.53067300       0.04575300       0.34880300
   156  H          0.96932700       0.95424700       0.84880300
   157  H          0.53067300       0.45424700       0.84880300
   158  H          0.96932700       0.54575300       0.34880300
   159  H          0.46932700       0.95424700       0.65119700
   160  H          0.03067300       0.04575300       0.15119700
