data_WUGKAL01
_symmetry_space_group_name_H-M    'P1'
_symmetry_Int_Tables_number       1
loop_
_symmetry_equiv_pos_site_id
_symmetry_equiv_pos_as_xyz
1 x,y,z
_cell_length_a                   36.6351
_cell_length_b                   5.578215
_cell_length_c                   10.3213
_cell_angle_alpha                90.0
_cell_angle_beta                 102.58
_cell_angle_gamma                90.0
loop_
_atom_site_label
_atom_site_type_symbol
_atom_site_fract_x
_atom_site_fract_y
_atom_site_fract_z
     1  Cl         0.50000000       0.08080000      -0.00000000
     2  Cl         0.00000000       0.58080000      -0.00000000
     3  Cl         0.50000000       0.04248000       0.50000000
     4  Cl         0.00000000       0.54248000       0.50000000
     5  N          0.50520000       0.38540000       0.26540000
     6  N          0.49480000       0.38540000       0.73460000
     7  N          0.00520000       0.88540000       0.26540000
     8  N          0.99480000       0.88540000       0.73460000
     9  H          0.50310000       0.25950000       0.31430000
    10  H          0.49690000       0.25950000       0.68570000
    11  H          0.00310000       0.75950000       0.31430000
    12  H         -0.00310000       0.75950000       0.68570000
    13  H          0.50580000       0.33420000       0.17950000
    14  H          0.49420000       0.33420000       0.82050000
    15  H          0.00580000       0.83420000       0.17950000
    16  H          0.99420000       0.83420000       0.82050000
    17  O          0.59670000       0.00680000       0.25210000
    18  O          0.40330000       0.00680000       0.74790000
    19  O          0.09670000       0.50680000       0.25210000
    20  O          0.90330000       0.50680000       0.74790000
    21  O          0.54650000       0.64860000       0.12420000
    22  O          0.45350000       0.64860000       0.87580000
    23  O          0.04650000       0.14860000       0.12420000
    24  O          0.95350000       0.14860000       0.87580000
    25  H          0.53720000       0.76020000       0.07700000
    26  H          0.46280000       0.76020000       0.92300000
    27  H          0.03720000       0.26020000       0.07700000
    28  H          0.96280000       0.26020000       0.92300000
    29  O          0.32580000       0.56170000       0.37320000
    30  O          0.67420000       0.56170000       0.62680000
    31  O          0.82580000       0.06170000       0.37320000
    32  O          0.17420000       0.06170000       0.62680000
    33  O          0.30330000       0.90280000       0.20660000
    34  O          0.69670000       0.90280000       0.79340000
    35  O          0.80330000       0.40280000       0.20660000
    36  O          0.19670000       0.40280000       0.79340000
    37  C          0.54190000       0.49800000       0.33340000
    38  C          0.45810000       0.49800000       0.66660000
    39  C          0.04190000      -0.00200000       0.33340000
    40  C          0.95810000      -0.00200000       0.66660000
    41  H          0.56180000       0.38080000       0.34000000
    42  H          0.43820000       0.38080000       0.66000000
    43  H          0.06180000       0.88080000       0.34000000
    44  H          0.93820000       0.88080000       0.66000000
    45  H          0.54060000       0.54500000       0.42280000
    46  H          0.45940000       0.54500000       0.57720000
    47  H          0.04060000       0.04500000       0.42280000
    48  H          0.95940000       0.04500000       0.57720000
    49  C          0.55080000       0.71360000       0.25920000
    50  C          0.44920000       0.71360000       0.74080000
    51  C          0.05080000       0.21360000       0.25920000
    52  C          0.94920000       0.21360000       0.74080000
    53  H          0.53360000       0.84430000       0.26710000
    54  H          0.46640000       0.84430000       0.73290000
    55  H          0.03360000       0.34430000       0.26710000
    56  H          0.96640000       0.34430000       0.73290000
    57  C          0.59060000       0.79240000       0.31540000
    58  C          0.40940000       0.79240000       0.68460000
    59  C          0.09060000       0.29240000       0.31540000
    60  C          0.90940000       0.29240000       0.68460000
    61  H          0.59440000       0.81780000       0.41040000
    62  H          0.40560000       0.81780000       0.58960000
    63  H          0.09440000       0.31780000       0.41040000
    64  H          0.90560000       0.31780000       0.58960000
    65  H          0.60800000       0.67040000       0.29980000
    66  H          0.39200000       0.67040000       0.70020000
    67  H          0.10800000       0.17040000       0.29980000
    68  H          0.89200000       0.17040000       0.70020000
    69  C          0.63240000       0.06800000       0.24640000
    70  C          0.36760000       0.06800000       0.75360000
    71  C          0.13240000       0.56800000       0.24640000
    72  C          0.86760000       0.56800000       0.75360000
    73  C          0.66370000       0.94530000       0.31210000
    74  C          0.33630000       0.94530000       0.68790000
    75  C          0.16370000       0.44530000       0.31210000
    76  C          0.83630000       0.44530000       0.68790000
    77  H          0.66120000       0.81120000       0.36300000
    78  H          0.33880000       0.81120000       0.63700000
    79  H          0.16120000       0.31120000       0.36300000
    80  H          0.83880000       0.31120000       0.63700000
    81  C          0.69910000       0.02340000       0.30190000
    82  C          0.30090000       0.02340000       0.69810000
    83  C          0.19910000       0.52340000       0.30190000
    84  C          0.80090000       0.52340000       0.69810000
    85  C          0.70240000       0.22220000       0.22740000
    86  C          0.29760000       0.22220000       0.77260000
    87  C          0.20240000       0.72220000       0.22740000
    88  C          0.79760000       0.72220000       0.77260000
    89  H          0.72590000       0.27560000       0.22060000
    90  H          0.27410000       0.27560000       0.77940000
    91  H          0.22590000       0.77560000       0.22060000
    92  H          0.77410000       0.77560000       0.77940000
    93  C          0.67110000       0.34280000       0.16280000
    94  C          0.32890000       0.34280000       0.83720000
    95  C          0.17110000       0.84280000       0.16280000
    96  C          0.82890000       0.84280000       0.83720000
    97  H          0.67370000       0.47760000       0.11270000
    98  H          0.32630000       0.47760000       0.88730000
    99  H          0.17370000      -0.02240000       0.11270000
   100  H          0.82630000      -0.02240000       0.88730000
   101  C          0.63600000       0.26840000       0.17060000
   102  C          0.36400000       0.26840000       0.82940000
   103  C          0.13600000       0.76840000       0.17060000
   104  C          0.86400000       0.76840000       0.82940000
   105  H          0.61500000       0.35080000       0.12590000
   106  H          0.38500000       0.35080000       0.87410000
   107  H          0.11500000       0.85080000       0.12590000
   108  H          0.88500000       0.85080000       0.87410000
   109  C          0.73270000       0.88690000       0.37420000
   110  C          0.26730000       0.88690000       0.62580000
   111  C          0.23270000       0.38690000       0.37420000
   112  C          0.76730000       0.38690000       0.62580000
   113  H          0.75480000       0.95140000       0.35160000
   114  H          0.24520000       0.95140000       0.64840000
   115  H          0.25480000       0.45140000       0.35160000
   116  H          0.74520000       0.45140000       0.64840000
   117  H          0.73020000       0.72130000       0.34890000
   118  H          0.26980000       0.72130000       0.65110000
   119  H          0.23020000       0.22130000       0.34890000
   120  H          0.76980000       0.22130000       0.65110000
   121  H          0.73470000       0.90080000       0.46800000
   122  H          0.26530000       0.90080000       0.53200000
   123  H          0.23470000       0.40080000       0.46800000
   124  H          0.76530000       0.40080000       0.53200000
   125  C          0.47160000       0.54320000       0.24990000
   126  C          0.52840000       0.54320000       0.75010000
   127  C          0.97160000       0.04320000       0.24990000
   128  C          0.02840000       0.04320000       0.75010000
   129  H          0.47440000       0.68040000       0.19520000
   130  H          0.52560000       0.68040000       0.80480000
   131  H          0.97440000       0.18040000       0.19520000
   132  H          0.02560000       0.18040000       0.80480000
   133  H          0.46920000       0.60150000       0.33620000
   134  H          0.53080000       0.60150000       0.66380000
   135  H          0.96920000       0.10150000       0.33620000
   136  H          0.03080000       0.10150000       0.66380000
   137  C          0.43680000       0.40430000       0.18580000
   138  C          0.56320000       0.40430000       0.81420000
   139  C          0.93680000       0.90430000       0.18580000
   140  C          0.06320000       0.90430000       0.81420000
   141  H          0.43620000       0.25400000       0.23260000
   142  H          0.56380000       0.25400000       0.76740000
   143  H          0.93620000       0.75400000       0.23260000
   144  H          0.06380000       0.75400000       0.76740000
   145  H          0.43760000       0.36760000       0.09460000
   146  H          0.56240000       0.36760000       0.90540000
   147  H          0.93760000       0.86760000       0.09460000
   148  H          0.06240000       0.86760000       0.90540000
   149  C          0.40170000       0.54480000       0.18820000
   150  C          0.59830000       0.54480000       0.81180000
   151  C          0.90170000       0.04480000       0.18820000
   152  C          0.09830000       0.04480000       0.81180000
   153  C          0.38010000       0.48500000       0.28040000
   154  C          0.61990000       0.48500000       0.71960000
   155  C          0.88010000      -0.01500000       0.28040000
   156  C          0.11990000      -0.01500000       0.71960000
   157  H          0.38750000       0.35850000       0.33890000
   158  H          0.61250000       0.35850000       0.66110000
   159  H          0.88750000       0.85850000       0.33890000
   160  H          0.11250000       0.85850000       0.66110000
   161  C          0.34820000       0.61060000       0.28550000
   162  C          0.65180000       0.61060000       0.71450000
   163  C          0.84820000       0.11060000       0.28550000
   164  C          0.15180000       0.11060000       0.71450000
   165  C          0.33610000       0.79570000       0.19630000
   166  C          0.66390000       0.79570000       0.80370000
   167  C          0.83610000       0.29570000       0.19630000
   168  C          0.16390000       0.29570000       0.80370000
   169  C          0.35750000       0.85650000       0.10620000
   170  C          0.64250000       0.85650000       0.89380000
   171  C          0.85750000       0.35650000       0.10620000
   172  C          0.14250000       0.35650000       0.89380000
   173  H          0.35010000      -0.01730000       0.04740000
   174  H          0.64990000      -0.01730000       0.95260000
   175  H          0.85010000       0.48270000       0.04740000
   176  H          0.14990000       0.48270000       0.95260000
   177  C          0.38970000       0.73090000       0.10320000
   178  C          0.61030000       0.73090000       0.89680000
   179  C          0.88970000       0.23090000       0.10320000
   180  C          0.11030000       0.23090000       0.89680000
   181  H          0.40370000       0.77380000       0.04170000
   182  H          0.59630000       0.77380000       0.95830000
   183  H          0.90370000       0.27380000       0.04170000
   184  H          0.09630000       0.27380000       0.95830000
   185  C          0.33490000       0.35910000       0.45740000
   186  C          0.66510000       0.35910000       0.54260000
   187  C          0.83490000       0.85910000       0.45740000
   188  C          0.16510000       0.85910000       0.54260000
   189  H          0.31750000       0.34720000       0.51460000
   190  H          0.68250000       0.34720000       0.48540000
   191  H          0.81750000       0.84720000       0.51460000
   192  H          0.18250000       0.84720000       0.48540000
   193  H          0.35980000       0.37660000       0.51020000
   194  H          0.64020000       0.37660000       0.48980000
   195  H          0.85980000       0.87660000       0.51020000
   196  H          0.14020000       0.87660000       0.48980000
   197  H          0.33350000       0.21660000       0.40440000
   198  H          0.66650000       0.21660000       0.59560000
   199  H          0.83350000       0.71660000       0.40440000
   200  H          0.16650000       0.71660000       0.59560000
   201  C          0.28830000       0.08050000       0.11020000
   202  C          0.71170000       0.08050000       0.88980000
   203  C          0.78830000       0.58050000       0.11020000
   204  C          0.21170000       0.58050000       0.88980000
   205  H          0.26540000       0.14170000       0.12800000
   206  H          0.73460000       0.14170000       0.87200000
   207  H          0.76540000       0.64170000       0.12800000
   208  H          0.23460000       0.64170000       0.87200000
   209  H          0.28340000       0.01030000       0.02320000
   210  H          0.71660000       0.01030000       0.97680000
   211  H          0.78340000       0.51030000       0.02320000
   212  H          0.21660000       0.51030000       0.97680000
   213  H          0.30590000       0.20910000       0.11440000
   214  H          0.69410000       0.20910000       0.88560000
   215  H          0.80590000       0.70910000       0.11440000
   216  H          0.19410000       0.70910000       0.88560000
