data_WUKROJ
_symmetry_space_group_name_H-M    'P1'
_symmetry_Int_Tables_number       1
loop_
_symmetry_equiv_pos_site_id
_symmetry_equiv_pos_as_xyz
1 x,y,z
_cell_length_a                   7.38102
_cell_length_b                   12.10355
_cell_length_c                   30.179811
_cell_angle_alpha                90.0
_cell_angle_beta                 90.0742
_cell_angle_gamma                90.0
loop_
_atom_site_label
_atom_site_type_symbol
_atom_site_fract_x
_atom_site_fract_y
_atom_site_fract_z
     1  O          0.21614170       0.62830110       0.49428500
     2  O          0.78385830       0.12830110       0.00571500
     3  O          0.78385830       0.37169890       0.50571500
     4  O          0.21614170       0.87169890       0.99428500
     5  O          0.08478180       0.77133110       0.46068500
     6  O          0.91521820       0.27133110       0.03931500
     7  O          0.91521820       0.22866890       0.53931500
     8  O          0.08478180       0.72866890       0.96068500
     9  H          0.01130000       0.70720000       0.44259000
    10  H         -0.01130000       0.20720000       0.05741000
    11  H         -0.01130000       0.29280000       0.55741000
    12  H          0.01130000       0.79280000       0.94259000
    13  O          0.67742180       0.06254100       0.61724500
    14  O          0.32257820       0.56254100       0.88275500
    15  O          0.32257820       0.93745900       0.38275500
    16  O          0.67742180       0.43745900       0.11724500
    17  O          0.47784170       0.16981110       0.58242500
    18  O          0.52215830       0.66981110       0.91757500
    19  O          0.52215830       0.83018890       0.41757500
    20  O          0.47784170       0.33018890       0.08242500
    21  H          0.52930000       0.23420000       0.60229000
    22  H          0.47070000       0.73420000       0.89771000
    23  H          0.47070000       0.76580000       0.39771000
    24  H          0.52930000       0.26580000       0.10229000
    25  C          0.48452000       0.79346140       0.53080600
    26  C          0.51548000       0.29346140       0.96919400
    27  C          0.51548000       0.20653860       0.46919400
    28  C          0.48452000       0.70653860       0.03080600
    29  C          0.57932000       0.69340150       0.52278700
    30  C          0.42068000       0.19340150       0.97721300
    31  C          0.42068000       0.30659850       0.47721300
    32  C          0.57932000       0.80659850       0.02278700
    33  H          0.52180000       0.63610000       0.50650000
    34  H          0.47820000       0.13610000       0.99350000
    35  H          0.47820000       0.36390000       0.49350000
    36  H          0.52180000       0.86390000       0.00650000
    37  C          0.75202000       0.67820160       0.53809700
    38  C          0.24798000       0.17820160       0.96190300
    39  C          0.24798000       0.32179840       0.46190300
    40  C          0.75202000       0.82179840       0.03809700
    41  H          0.81340000       0.61070000       0.53240000
    42  H          0.18660000       0.11070000       0.96760000
    43  H          0.18660000       0.38930000       0.46760000
    44  H          0.81340000       0.88930000       0.03240000
    45  C          0.83852000       0.76176170       0.56216700
    46  C          0.16148000       0.26176170       0.93783300
    47  C          0.16148000       0.23823830       0.43783300
    48  C          0.83852000       0.73823830       0.06216700
    49  H          0.95810000       0.75020000       0.57290000
    50  H          0.04190000       0.25020000       0.92710000
    51  H          0.04190000       0.24980000       0.42710000
    52  H          0.95810000       0.74980000       0.07290000
    53  C          0.75322000       0.85998160       0.57049700
    54  C          0.24678000       0.35998160       0.92950300
    55  C          0.24678000       0.14001840       0.42950300
    56  C          0.75322000       0.64001840       0.07049700
    57  H          0.81480000       0.91600000       0.58660000
    58  H          0.18520000       0.41600000       0.91340000
    59  H          0.18520000       0.08400000       0.41340000
    60  H          0.81480000       0.58400000       0.08660000
    61  C          0.57362000       0.87927140       0.55526600
    62  C          0.42638000       0.37927140       0.94473400
    63  C          0.42638000       0.12072860       0.44473400
    64  C          0.57362000       0.62072860       0.05526600
    65  C          0.48072000       0.98253140       0.56217600
    66  C          0.51928000       0.48253140       0.93782400
    67  C          0.51928000       0.01746860       0.43782400
    68  C          0.48072000       0.51746860       0.06217600
    69  C          0.31102000      -0.00204850       0.54450700
    70  C          0.68898000       0.49795150       0.95549300
    71  C          0.68898000       0.00204850       0.45549300
    72  C          0.31102000       0.50204850       0.04450700
    73  H          0.25130000       0.06670000       0.54860000
    74  H          0.74870000       0.56670000       0.95140000
    75  H          0.74870000       0.93330000       0.45140000
    76  H          0.25130000       0.43330000       0.04860000
    77  C          0.22462000       0.91390150       0.52051600
    78  C          0.77538000       0.41390150       0.97948400
    79  C          0.77538000       0.08609850       0.47948400
    80  C          0.22462000       0.58609850       0.02051600
    81  H          0.10730000       0.92680000       0.50860000
    82  H          0.89270000       0.42680000       0.99140000
    83  H          0.89270000       0.07320000       0.49140000
    84  H          0.10730000       0.57320000       0.00860000
    85  C          0.30622000       0.81341140       0.51391600
    86  C          0.69378000       0.31341140       0.98608400
    87  C          0.69378000       0.18658860       0.48608400
    88  C          0.30622000       0.68658860       0.01391600
    89  C          0.20082000       0.72751160       0.48885700
    90  C          0.79918000       0.22751160       0.01114300
    91  C          0.79918000       0.27248840       0.51114300
    92  C          0.20082000       0.77248840       0.98885700
    93  C          0.55802000       0.07401150       0.58973700
    94  C          0.44198000       0.57401150       0.91026300
    95  C          0.44198000       0.92598850       0.41026300
    96  C          0.55802000       0.42598850       0.08973700
    97  N          0.07122000       0.23813130       0.76666600
    98  N          0.92878000       0.73813130       0.73333400
    99  N          0.92878000       0.76186870       0.23333400
   100  N          0.07122000       0.26186870       0.26666600
   101  N          0.08134180       0.37073120       0.59110600
   102  N          0.91865820       0.87073120       0.90889400
   103  N          0.91865820       0.62926880       0.40889400
   104  N          0.08134180       0.12926880       0.09110600
   105  C          0.13343000       0.30391180       0.79834700
   106  C          0.86657000       0.80391180       0.70165300
   107  C          0.86657000       0.69608820       0.20165300
   108  C          0.13343000       0.19608820       0.29834700
   109  H          0.13360000       0.27660000       0.82780000
   110  H          0.86640000       0.77660000       0.67220000
   111  H          0.86640000       0.72340000       0.17220000
   112  H          0.13360000       0.22340000       0.32780000
   113  C          0.19852000       0.41057170       0.79123700
   114  C          0.80148000       0.91057170       0.70876300
   115  C          0.80148000       0.58942830       0.20876300
   116  C          0.19852000       0.08942830       0.29123700
   117  H          0.23960000       0.45450000       0.81530000
   118  H          0.76040000       0.95450000       0.68470000
   119  H          0.76040000       0.54550000       0.18470000
   120  H          0.23960000       0.04550000       0.31530000
   121  C          0.20202000       0.45064160       0.74892700
   122  C          0.79798000       0.95064160       0.75107300
   123  C          0.79798000       0.54935840       0.25107300
   124  C          0.20202000       0.04935840       0.24892700
   125  H          0.24510000       0.52330000       0.74330000
   126  H          0.75490000       0.02330000       0.75670000
   127  H          0.75490000       0.47670000       0.25670000
   128  H          0.24510000       0.97670000       0.24330000
   129  C          0.14182000       0.38409140       0.71371600
   130  C          0.85818000       0.88409140       0.78628400
   131  C          0.85818000       0.61590860       0.28628400
   132  C          0.14182000       0.11590860       0.21371600
   133  C          0.07512000       0.27812140       0.72443700
   134  C          0.92488000       0.77812140       0.77556300
   135  C          0.92488000       0.72187860       0.27556300
   136  C          0.07512000       0.22187860       0.22443700
   137  C          0.00812000       0.20795140       0.69032700
   138  C         -0.00812000       0.70795140       0.80967300
   139  C         -0.00812000       0.79204860       0.30967300
   140  C          0.00812000       0.29204860       0.19032700
   141  H          0.95940000       0.13790000       0.69800000
   142  H          0.04060000       0.63790000       0.80200000
   143  H          0.04060000       0.86210000       0.30200000
   144  H          0.95940000       0.36210000       0.19800000
   145  C          0.01212000       0.23842140       0.64745700
   146  C         -0.01212000       0.73842140       0.85254300
   147  C         -0.01212000       0.76157860       0.35254300
   148  C          0.01212000       0.26157860       0.14745700
   149  H          0.96810000       0.18950000       0.62530000
   150  H          0.03190000       0.68950000       0.87470000
   151  H          0.03190000       0.81050000       0.37470000
   152  H          0.96810000       0.31050000       0.12530000
   153  C          0.08222000       0.34420140       0.63510600
   154  C          0.91778000       0.84420140       0.86489400
   155  C          0.91778000       0.65579860       0.36489400
   156  C          0.08222000       0.15579860       0.13510600
   157  C          0.14552000       0.41813130       0.66776600
   158  C          0.85448000       0.91813130       0.83223400
   159  C          0.85448000       0.58186870       0.33223400
   160  C          0.14552000       0.08186870       0.16776600
   161  C          0.20972000       0.52155150       0.65299700
   162  C          0.79028000       0.02155150       0.84700300
   163  C          0.79028000       0.47844850       0.34700300
   164  C          0.20972000       0.97844850       0.15299700
   165  H          0.25330000       0.57420000       0.67380000
   166  H          0.74670000       0.07420000       0.82620000
   167  H          0.74670000       0.42580000       0.32620000
   168  H          0.25330000       0.92580000       0.17380000
   169  C          0.20882000       0.54578150       0.60882700
   170  C          0.79118000       0.04578150       0.89117300
   171  C          0.79118000       0.45421850       0.39117300
   172  C          0.20882000       0.95421850       0.10882700
   173  H          0.25340000       0.61500000       0.59870000
   174  H          0.74660000       0.11500000       0.90130000
   175  H          0.74660000       0.38500000       0.40130000
   176  H          0.25340000       0.88500000       0.09870000
   177  C          0.14262000       0.46896160       0.57871700
   178  C          0.85738000       0.96896160       0.92128300
   179  C          0.85738000       0.53103840       0.42128300
   180  C          0.14262000       0.03103840       0.07871700
   181  H          0.14120000       0.48740000       0.54810000
   182  H          0.85880000       0.98740000       0.95190000
   183  H          0.85880000       0.51260000       0.45190000
   184  H          0.14120000       0.01260000       0.04810000
   185  N          0.61465190       0.27040130       0.81521600
   186  N          0.38534810       0.77040130       0.68478400
   187  N          0.38534810       0.72959870       0.18478400
   188  N          0.61465190       0.22959870       0.31521600
   189  N          0.58116180       0.33609120       0.63362600
   190  N          0.41883820       0.83609120       0.86637400
   191  N          0.41883820       0.66390880       0.36637400
   192  N          0.58116180       0.16390880       0.13362600
   193  C          0.67742000       0.34784160       0.84204700
   194  C          0.32258000       0.84784160       0.65795300
   195  C          0.32258000       0.65215840       0.15795300
   196  C          0.67742000       0.15215840       0.34204700
   197  H          0.68130000       0.33260000       0.87290000
   198  H          0.31870000       0.83260000       0.62710000
   199  H          0.31870000       0.66740000       0.12710000
   200  H          0.68130000       0.16740000       0.37290000
   201  C          0.73832000       0.45096160       0.82745700
   202  C          0.26168000       0.95096160       0.67254300
   203  C          0.26168000       0.54903840       0.17254300
   204  C          0.73832000       0.04903840       0.32745700
   205  H          0.78090000       0.50420000       0.84810000
   206  H          0.21910000       0.00420000       0.65190000
   207  H          0.21910000       0.49580000       0.15190000
   208  H          0.78090000      -0.00420000       0.34810000
   209  C          0.73582000       0.47434150       0.78314700
   210  C          0.26418000       0.97434150       0.71685300
   211  C          0.26418000       0.52565850       0.21685300
   212  C          0.73582000       0.02565850       0.28314700
   213  H          0.77820000       0.54370000       0.77270000
   214  H          0.22180000       0.04370000       0.72730000
   215  H          0.22180000       0.45630000       0.22730000
   216  H          0.77820000       0.95630000       0.27270000
   217  C          0.66992000       0.39502140       0.75310600
   218  C          0.33008000       0.89502140       0.74689400
   219  C          0.33008000       0.60497860       0.24689400
   220  C          0.66992000       0.10497860       0.25310600
   221  C          0.61012000       0.29366140       0.77111700
   222  C          0.38988000       0.79366140       0.72888300
   223  C          0.38988000       0.70633860       0.22888300
   224  C          0.61012000       0.20633860       0.27111700
   225  C          0.53932000       0.21060140       0.74226700
   226  C          0.46068000       0.71060140       0.75773300
   227  C          0.46068000       0.78939860       0.25773300
   228  C          0.53932000       0.28939860       0.24226700
   229  H          0.49720000       0.14310000       0.75460000
   230  H          0.50280000       0.64310000       0.74540000
   231  H          0.50280000       0.85690000       0.24540000
   232  H          0.49720000       0.35690000       0.25460000
   233  C          0.53052000       0.22524140       0.69811700
   234  C          0.46948000       0.72524140       0.80188300
   235  C          0.46948000       0.77475860       0.30188300
   236  C          0.53052000       0.27475860       0.19811700
   237  H          0.48360000       0.16810000       0.67980000
   238  H          0.51640000       0.66810000       0.82020000
   239  H          0.51640000       0.83190000       0.32020000
   240  H          0.48360000       0.33190000       0.17980000
   241  C          0.59162000       0.32660140       0.67848700
   242  C          0.40838000       0.82660140       0.82151300
   243  C          0.40838000       0.67339860       0.32151300
   244  C          0.59162000       0.17339860       0.17848700
   245  C          0.66032000       0.41189130       0.70561600
   246  C          0.33968000       0.91189130       0.79438400
   247  C          0.33968000       0.58810870       0.29438400
   248  C          0.66032000       0.08810870       0.20561600
   249  C          0.71742000       0.50934140       0.68429600
   250  C          0.28258000       0.00934140       0.81570400
   251  C          0.28258000       0.49065860       0.31570400
   252  C          0.71742000      -0.00934140       0.18429600
   253  H          0.76670000       0.56840000       0.70120000
   254  H          0.23330000       0.06840000       0.79880000
   255  H          0.23330000       0.43160000       0.29880000
   256  H          0.76670000       0.93160000       0.20120000
   257  C          0.70182000       0.51888150       0.63929700
   258  C          0.29818000       0.01888150       0.86070300
   259  C          0.29818000       0.48111850       0.36070300
   260  C          0.70182000       0.98111850       0.13929700
   261  H          0.73640000       0.58530000       0.62480000
   262  H          0.26360000       0.08530000       0.87520000
   263  H          0.26360000       0.41470000       0.37520000
   264  H          0.73640000       0.91470000       0.12480000
   265  C          0.63492000       0.43023150       0.61493700
   266  C          0.36508000       0.93023150       0.88506300
   267  C          0.36508000       0.56976850       0.38506300
   268  C          0.63492000       0.06976850       0.11493700
   269  H          0.62710000       0.43710000       0.58360000
   270  H          0.37290000       0.93710000       0.91640000
   271  H          0.37290000       0.56290000       0.41640000
   272  H          0.62710000       0.06290000       0.08360000
