data_WULBUE
_symmetry_space_group_name_H-M    'P1'
_symmetry_Int_Tables_number       1
loop_
_symmetry_equiv_pos_site_id
_symmetry_equiv_pos_as_xyz
1 x,y,z
_cell_length_a                   9.73253
_cell_length_b                   11.21224
_cell_length_c                   15.84476
_cell_angle_alpha                75.2143
_cell_angle_beta                 83.9863
_cell_angle_gamma                76.0663
loop_
_atom_site_label
_atom_site_type_symbol
_atom_site_fract_x
_atom_site_fract_y
_atom_site_fract_z
     1  O          0.29713000       0.70343000       0.40843190
     2  O          0.70287000       0.29657000       0.59156810
     3  O          0.51473000       0.84103000       0.59262000
     4  O          0.48527000       0.15897000       0.40738000
     5  N          0.40353000       0.76923000       0.50332000
     6  N          0.59647000       0.23077000       0.49668000
     7  N          0.28184000       0.44173000       0.17582000
     8  N          0.71816000       0.55827000       0.82418000
     9  C          0.26424000       0.87224000       0.61273000
    10  C          0.73576000       0.12776000       0.38727000
    11  C          0.00804000       0.89604000       0.62613000
    12  C         -0.00804000       0.10396000       0.37387000
    13  C          0.14644000       0.79813000       0.51293000
    14  C          0.85356000       0.20187000       0.48707000
    15  C          0.13924000       0.85573000       0.58333000
    16  C          0.86076000       0.14427000       0.41667000
    17  C          0.53844000       0.72584000       0.46043000
    18  C          0.46156000       0.27416000       0.53957000
    19  C          0.92274000       0.59234000       0.32373000
    20  C          0.07726000       0.40766000       0.67627000
    21  C          0.28064000       0.75403000       0.47033000
    22  C          0.71936000       0.24597000       0.52967000
    23  C          0.88006000       0.88113000       0.59563000
    24  C          0.11994000       0.11887000       0.40437000
    25  C          0.40284000       0.82874000       0.57083000
    26  C          0.59716000       0.17126000       0.42917000
    27  C          0.79274000       0.64054000       0.37333000
    28  C          0.20726000       0.35946000       0.62667000
    29  C          0.02114000       0.78544000       0.48433000
    30  C          0.97886000       0.21456000       0.51567000
    31  H          0.02515300       0.74824700       0.43621400
    32  H          0.97484700       0.25175300       0.56378600
    33  C          0.89126000       0.82564000       0.52443000
    34  C          0.10874000       0.17436000       0.47557000
    35  H          0.80793900       0.81546400       0.50336000
    36  H          0.19206100       0.18453600       0.49664000
    37  C          0.15574000       0.45324000       0.31743000
    38  C          0.84426000       0.54676000       0.68257000
    39  H          0.23191500       0.39245200       0.34710800
    40  H          0.76808500       0.60754800       0.65289200
    41  C          0.62004000       0.60634000       0.49383000
    42  C          0.37996000       0.39366000       0.50617000
    43  H          0.58924500       0.55324200       0.54564200
    44  H          0.41075500       0.44675800       0.45435800
    45  C          0.16364000       0.49164000       0.22693000
    46  C          0.83636000       0.50836000       0.77307000
    47  C          0.74704000       0.56524000       0.45063000
    48  C          0.25296000       0.43476000       0.54937000
    49  H          0.80416300       0.48403400       0.47408300
    50  H          0.19583700       0.51596600       0.52591700
    51  C          0.25474000       0.37894000       0.11393000
    52  C          0.74526000       0.62106000       0.88607000
    53  C          0.03764000       0.50264000       0.36473000
    54  C          0.96236000       0.49736000       0.63527000
    55  H          0.03440400       0.47508600       0.42661000
    56  H          0.96559600       0.52491400       0.57339000
    57  C          0.42054000       0.43644000       0.19683000
    58  C          0.57946000       0.56356000       0.80317000
    59  C          0.93214000       0.62834000       0.23263000
    60  C          0.06786000       0.37166000       0.76737000
    61  H          0.85546000       0.68825900       0.20269900
    62  H          0.14454000       0.31174100       0.79730100
    63  C          0.25845000       0.92774000       0.68183000
    64  C          0.74155000       0.07226000       0.31817000
    65  H          0.34308200       0.93861800       0.70074100
    66  H          0.65691800       0.06138200       0.29925900
    67  C          0.53735000       0.35474000       0.16783000
    68  C          0.46265000       0.64526000       0.83217000
    69  H          0.52392800       0.30072100       0.13338900
    70  H          0.47607200       0.69927900       0.86661100
    71  C          0.04804000       0.58004000       0.18483000
    72  C          0.95196000       0.41996000       0.81517000
    73  H          0.05036600       0.60646400       0.12281500
    74  H          0.94963400       0.39353600       0.87718500
    75  C          0.58264000       0.80384000       0.38543000
    76  C          0.41736000       0.19616000       0.61457000
    77  H          0.52650700       0.88597800       0.36355600
    78  H          0.47349300       0.11402200       0.63644400
    79  C          0.12915000       0.96764000       0.72383000
    80  C          0.87085000       0.03236000       0.27617000
    81  H          0.12541300       0.00562500       0.77140500
    82  H          0.87458700      -0.00562500       0.22859500
    83  C          0.00715000       0.95214000       0.69663000
    84  C         -0.00715000       0.04786000       0.30337000
    85  H          0.91938500       0.97976300       0.72588200
    86  H          0.08061500       0.02023700       0.27411800
    87  C          0.70904000       0.76164000       0.34233000
    88  C          0.29096000       0.23836000       0.65767000
    89  H          0.73938800       0.81565200       0.29085700
    90  H          0.26061200       0.18434800       0.70914300
    91  C          0.30775000       0.40455000       0.02853000
    92  C          0.69225000       0.59545000       0.97147000
    93  H          0.36354200       0.46614600       0.00983100
    94  H          0.63645800       0.53385400       0.99016900
    95  C          0.69415000       0.42795000       0.24133000
    96  C          0.30585000       0.57205000       0.75867000
    97  H          0.78708900       0.42400700       0.25673300
    98  H          0.21291100       0.57599300       0.74326700
    99  C          0.44485000       0.51414000       0.24743000
   100  C          0.55515000       0.48586000       0.75257000
   101  H          0.36703400       0.57211600       0.26651600
   102  H          0.63296600       0.42788400       0.73348400
   103  C          0.67245000       0.35194000       0.18893000
   104  C          0.32755000       0.64806000       0.81107000
   105  H          0.75133100       0.29747600       0.16756800
   106  H          0.24866900       0.70252400       0.83243200
   107  C          0.17025000       0.29014000       0.13993000
   108  C          0.82975000       0.70986000       0.86007000
   109  H          0.13161000       0.27244900       0.19815500
   110  H          0.86839000       0.72755100       0.80184500
   111  C          0.58015000       0.50815000       0.27013000
   112  C          0.41985000       0.49185000       0.72987000
   113  H          0.59396900       0.55996900       0.30596500
   114  H          0.40603100       0.44003100       0.69403500
   115  C          0.19806000       0.25135000      -0.00353000
   116  C          0.80194000       0.74865000       0.00353000
   117  H          0.18046800       0.20676700       0.95663000
   118  H          0.81953200       0.79323300       0.04337000
   119  C          0.28036000       0.34125000       0.96977000
   120  C          0.71964000       0.65875000       0.03023000
   121  H          0.31777100       0.35921900       0.91127300
   122  H          0.68222900       0.64078100       0.08872700
   123  C          0.14266000       0.22755000       0.08013000
   124  C          0.85734000       0.77245000       0.91987000
   125  H          0.08456100       0.16756500       0.09788700
   126  H          0.91543900       0.83243500       0.90211300
   127  N          0.75366000       0.92154000       0.63393000
   128  N          0.24634000       0.07846000       0.36607000
   129  H          0.67860000       0.90250000       0.61530000
   130  H          0.32140000       0.09750000       0.38470000
   131  H          0.74340000       0.95350000       0.68120000
   132  H          0.25660000       0.04650000       0.31880000
   133  O          0.32454000       0.91264000       0.07472000
   134  O          0.67546000       0.08736000       0.92528000
   135  C          0.39806000       0.88945000       0.14903000
   136  C          0.60194000       0.11055000       0.85097000
   137  H          0.45581700       0.80059500       0.16288400
   138  H          0.54418300       0.19940500       0.83711600
   139  C          0.49246000       0.98376000       0.13294000
   140  C          0.50754000       0.01624000       0.86706000
   141  H          0.56327000       0.96817200       0.08598400
   142  H          0.43673000       0.03182800       0.91401600
   143  H          0.54028500       0.97387600       0.18650000
   144  H          0.45971500       0.02612400       0.81350000
   145  H          0.43445200       0.06986200       0.11598400
   146  H          0.56554800       0.93013800       0.88401600
   147  C          0.28979000       0.80607000       0.05834000
   148  C          0.71021000       0.19393000       0.94166000
   149  H          0.24246300       0.76134700       0.11120300
   150  H          0.75753700       0.23865300       0.88879700
   151  H          0.37725200       0.74685200       0.04409100
   152  H          0.62274800       0.25314800       0.95590900
   153  C          0.19581000       0.84498000       0.98564000
   154  C          0.80419000       0.15502000       0.01436000
   155  H          0.24360600       0.88749100       0.93314800
   156  H          0.75639400       0.11250900       0.06685200
   157  H          0.10913000       0.90323600       0.00004300
   158  H          0.89087000       0.09676400      -0.00004300
   159  H          0.17145800       0.77032300       0.97505400
   160  H          0.82854200       0.22967700       0.02494600
   161  O          0.21934000       0.81994000       0.24382000
   162  O          0.78066000       0.18006000       0.75618000
   163  H          0.23280000       0.77960000       0.29820000
   164  H          0.76720000       0.22040000       0.70180000
   165  O          0.30714000       0.91443000       0.22162000
   166  O          0.69286000       0.08557000       0.77838000
