data_WUNWOV
_symmetry_space_group_name_H-M    'P1'
_symmetry_Int_Tables_number       1
loop_
_symmetry_equiv_pos_site_id
_symmetry_equiv_pos_as_xyz
1 x,y,z
_cell_length_a                   11.99053
_cell_length_b                   12.80114
_cell_length_c                   13.43784
_cell_angle_alpha                75.0433
_cell_angle_beta                 66.2873
_cell_angle_gamma                75.9823
loop_
_atom_site_label
_atom_site_type_symbol
_atom_site_fract_x
_atom_site_fract_y
_atom_site_fract_z
     1  N          0.70357100       0.37937900       0.54399900
     2  N          0.29642900       0.62062100       0.45600100
     3  C          0.61134110       0.40037100       0.63390100
     4  C          0.38865890       0.59962900       0.36609900
     5  O          0.55041800       0.50706700       0.62774700
     6  O          0.44958200       0.49293300       0.37225300
     7  C          0.61252110       0.55603100       0.52157100
     8  C          0.38747890       0.44396900       0.47842900
     9  N          0.58232100       0.66030900       0.48012900
    10  N          0.41767900       0.33969100       0.51987100
    11  C          0.65568120       0.68547100       0.37312110
    12  C          0.34431880       0.31452900       0.62687890
    13  N          0.74722100       0.61794900       0.31201900
    14  N          0.25277900       0.38205100       0.68798100
    15  C          0.77349120       0.51308100       0.35857100
    16  C          0.22650880       0.48691900       0.64142900
    17  C          0.70427120       0.47921100       0.47045100
    18  C          0.29572880       0.52078900       0.52954900
    19  O          0.54768900       0.15851800       0.84043800
    20  O          0.45231100       0.84148200       0.15956200
    21  N          0.45506120       0.23797100       0.90170100
    22  N          0.54493880       0.76202900       0.09829900
    23  C          0.46930130       0.33291120       0.83519110
    24  C          0.53069870       0.66708880       0.16480890
    25  C          0.38583140       0.43455130       0.87034120
    26  C          0.61416860       0.56544870       0.12965880
    27  H          0.33802100       0.46536100       0.82217200
    28  H          0.66197900       0.53463900       0.17782800
    29  H          0.43509600       0.48807500       0.86504500
    30  H          0.56490400       0.51192500       0.13495500
    31  H          0.32952900       0.41702300       0.94691800
    32  H          0.67047100       0.58297700       0.05308200
    33  C          0.56709120       0.32267110       0.73235110
    34  C          0.43290880       0.67732890       0.26764890
    35  C          0.61155120       0.21144110       0.74124110
    36  C          0.38844880       0.78855890       0.25875890
    37  N          0.70213110       0.15355100       0.67080100
    38  N          0.29786890       0.84644900       0.32919900
    39  H          0.71880500       0.08208700       0.68996400
    40  H          0.28119500       0.91791300       0.31003600
    41  H          0.74537800       0.18672700       0.60504900
    42  H          0.25462200       0.81327300       0.39495100
    43  C          0.63535140       0.80109110       0.31521120
    44  C          0.36464860       0.19890890       0.68478880
    45  H          0.69782800       0.84043800       0.31181300
    46  H          0.30217200       0.15956200       0.68818700
    47  H          0.55307800       0.83712900       0.35582300
    48  H          0.44692200       0.16287100       0.64417700
    49  H          0.64184400       0.80142200       0.24006700
    50  H          0.35815600       0.19857800       0.75993300
    51  N          0.86305110       0.44450100       0.29695900
    52  N          0.13694890       0.55549900       0.70304100
    53  H          0.87991500       0.37871500       0.32861400
    54  H          0.12008500       0.62128500       0.67138600
    55  C          0.93673130       0.47726110       0.18030110
    56  C          0.06326870       0.52273890       0.81969890
    57  H          0.00885100       0.50670200       0.17404100
    58  H          0.99114900       0.49329800       0.82595900
    59  H          0.88652100       0.53575000       0.14471200
    60  H          0.11347900       0.46425000       0.85528800
    61  C          0.98020120       0.38048110       0.12208100
    62  C          0.01979880       0.61951890       0.87791900
    63  C          0.10027130       0.32643120       0.09806120
    64  C          0.89972870       0.67356880       0.90193880
    65  H          0.15512400       0.34954300       0.12001100
    66  H          0.84487600       0.65045700       0.87998900
    67  C          0.14169140       0.23888130       0.04233140
    68  C          0.85830860       0.76111870       0.95766860
    69  H          0.22454400       0.20285400       0.02590700
    70  H          0.77545600       0.79714600       0.97409300
    71  C          0.06254150       0.20429120       0.01087120
    72  C          0.93745850       0.79570880      -0.01087120
    73  H          0.09116300       0.14503300       0.97185600
    74  H          0.90883700       0.85496700       0.02814400
    75  C          0.94162150       0.25568120       0.03598120
    76  C          0.05837850       0.74431880       0.96401880
    77  H          0.88664800       0.23098900       0.01546600
    78  H          0.11335200       0.76901100       0.98453400
    79  C          0.90063140       0.34347120       0.09127120
    80  C          0.09936860       0.65652880       0.90872880
    81  H          0.81745200       0.37873500       0.10829900
    82  H          0.18254800       0.62126500       0.89170100
    83  N          0.09343100       0.80837900       0.57314900
    84  N          0.90656900       0.19162100       0.42685100
    85  C          0.06559120       0.87742100       0.63945100
    86  C          0.93440880       0.12257900       0.36054900
    87  O          0.94770200       0.93629700       0.66374700
    88  O          0.05229800       0.06370300       0.33625300
    89  C          0.89880880       0.89890100       0.60496100
    90  C          0.10119120       0.10109900       0.39503900
    91  N          0.78537900       0.93476900       0.60486900
    92  N          0.21462100       0.06523100       0.39513100
    93  C          0.76250880       0.88570100       0.53873110
    94  C          0.23749120       0.11429900       0.46126890
    95  N          0.84046900       0.81045900       0.47843900
    96  N          0.15953100       0.18954100       0.52156100
    97  C          0.95471880       0.77728100       0.48202100
    98  C          0.04528120       0.22271900       0.51797900
    99  C          0.98696890       0.82245100       0.54986100
   100  C          0.01303110       0.17754900       0.45013900
   101  O          0.32112100       0.88095800       0.71236900
   102  O          0.67887900       0.11904200       0.28763100
   103  N          0.23241120       0.96340100       0.77188100
   104  N          0.76758880       0.03659900       0.22811900
   105  C          0.13171140       0.97050110       0.75307110
   106  C          0.86828860       0.02949890       0.24692890
   107  C          0.01976160       0.04856130       0.80197130
   108  C          0.98023840       0.95143870       0.19802870
   109  H          0.95424700       0.00765200       0.85569200
   110  H          0.04575300      -0.00765200       0.14430800
   111  H          0.99192200       0.09508000       0.74330800
   112  H          0.00807800       0.90492000       0.25669200
   113  H          0.03933400       0.09437000       0.83912000
   114  H          0.96066600       0.90563000       0.16088000
   115  C          0.14623120       0.89692110       0.68412110
   116  C          0.85376880       0.10307890       0.31587890
   117  C          0.26704130       0.84382110       0.66151110
   118  C          0.73295870       0.15617890       0.33848890
   119  N          0.33172110       0.76767100       0.60039110
   120  N          0.66827890       0.23232900       0.39960890
   121  H          0.40897700       0.74240400       0.59384100
   122  H          0.59102300       0.25759600       0.40615900
   123  H          0.29736400       0.74243800       0.56641600
   124  H          0.70263600       0.25756200       0.43358400
   125  C          0.63698870       0.91798120       0.53184120
   126  C          0.36301130       0.08201880       0.46815880
   127  H          0.59623100       0.85321000       0.55648600
   128  H          0.40376900       0.14679000       0.44351400
   129  H          0.64451600       0.94984600       0.45524500
   130  H          0.35548400       0.05015400       0.54475500
   131  H          0.58794300       0.97205400       0.57928600
   132  H          0.41205700       0.02794600       0.42071400
   133  N          0.03510110       0.70315900       0.42144900
   134  N          0.96489890       0.29684100       0.57855100
   135  H          0.10641600       0.68061300       0.42811300
   136  H          0.89358400       0.31938700       0.57188700
   137  C          0.00464130       0.65063110       0.35293110
   138  C          0.99535870       0.34936890       0.64706890
   139  H          0.97411300       0.70712500       0.29990800
   140  H          0.02588700       0.29287500       0.70009200
   141  H          0.93874900       0.60609900       0.40016600
   142  H          0.06125100       0.39390100       0.59983400
   143  C          0.11833120       0.57845100       0.29095110
   144  C          0.88166880       0.42154900       0.70904890
   145  C          0.14573140       0.46934110       0.33724120
   146  C          0.85426860       0.53065890       0.66275880
   147  H          0.09169800       0.44003900       0.40798900
   148  H          0.90830200       0.55996100       0.59201100
   149  C          0.25082150       0.40286120       0.28148130
   150  C          0.74917850       0.59713880       0.71851870
   151  H          0.26859300       0.32869400       0.31427200
   152  H          0.73140700       0.67130600       0.68572800
   153  C          0.32991140       0.44456120       0.17798120
   154  C          0.67008860       0.55543880       0.82201880
   155  H          0.40147500       0.39893100       0.13935200
   156  H          0.59852500       0.60106900       0.86064800
   157  C          0.30421140       0.55294120       0.13113120
   158  C          0.69578860       0.44705880       0.86886880
   159  H          0.35826300       0.58182000       0.06020600
   160  H          0.64173700       0.41818000       0.93979400
   161  C          0.19930130       0.61971110       0.18773110
   162  C          0.80069870       0.38028890       0.81226890
   163  H          0.18284200       0.69431000       0.15548200
   164  H          0.81715800       0.30569000       0.84451800
   165  C          0.51829170       0.87323150       0.83942850
   166  C          0.48170830       0.12676850       0.16057150
   167  H          0.57800200       0.87302800       0.87229100
   168  H          0.42199800       0.12697200       0.12770900
   169  H          0.50971900       0.94338500       0.79000400
   170  H          0.49028100       0.05661500       0.20999600
   171  H          0.54724900       0.81361400       0.79727800
   172  H          0.45275100       0.18638600       0.20272200
   173  C          0.39677170       0.85757150       0.92849860
   174  C          0.60322830       0.14242850       0.07150140
   175  C          0.32812000       0.95462000       0.98139830
   176  C          0.67188000       0.04538000       0.01860170
   177  H          0.29197400       0.00880000       0.93181900
   178  H          0.70802600      -0.00880000       0.06818100
   179  H          0.38479500       0.98705000      -0.00390800
   180  H          0.61520500       0.01295000       0.00390800
   181  H          0.26229900       0.93193500       0.05110900
   182  H          0.73770100       0.06806500       0.94889100
   183  O          0.35895180       0.77224140       0.95372840
   184  O          0.64104820       0.22775860       0.04627160
