data_WUPYEN01
_symmetry_space_group_name_H-M    'P1'
_symmetry_Int_Tables_number       1
loop_
_symmetry_equiv_pos_site_id
_symmetry_equiv_pos_as_xyz
1 x,y,z
_cell_length_a                   7.16014
_cell_length_b                   9.62934
_cell_length_c                   13.99295
_cell_angle_alpha                83.3413
_cell_angle_beta                 81.2274
_cell_angle_gamma                78.6024
loop_
_atom_site_label
_atom_site_type_symbol
_atom_site_fract_x
_atom_site_fract_y
_atom_site_fract_z
     1  Cl         0.01382100       0.42270900       0.22009500
     2  Cl         0.98617900       0.57729100       0.77990500
     3  O          0.58983000       0.33922000       0.02606140
     4  O          0.41017000       0.66078000       0.97393860
     5  O          0.26603000       0.23032000       0.06530130
     6  O          0.73397000       0.76968000       0.93469870
     7  O          0.13843000       0.11492000       0.93030140
     8  O          0.86157000       0.88508000       0.06969860
     9  N          0.70263000       0.65613000       0.52663170
    10  N          0.29737000       0.34387000       0.47336830
    11  H          0.73550000       0.74040000       0.49520000
    12  H          0.26450000       0.25960000       0.50480000
    13  N          0.62003000       0.27753000       0.68297160
    14  N          0.37997000       0.72247000       0.31702840
    15  H          0.63550000       0.20640000       0.66030000
    16  H          0.36450000       0.79360000       0.33970000
    17  C          0.64744000       0.40043000       0.63267190
    18  C          0.35256000       0.59957000       0.36732810
    19  C          0.58554000       0.53183000       0.67262000
    20  C          0.41446000       0.46817000       0.32738000
    21  H          0.52230200       0.53529500       0.73734100
    22  H          0.47769800       0.46470500       0.26265900
    23  C          0.61634000       0.65483000       0.61802000
    24  C          0.38366000       0.34517000       0.38198000
    25  H          0.57461400       0.74250400       0.64644200
    26  H          0.42538600       0.25749600       0.35355800
    27  C          0.76334000       0.53313000       0.48168190
    28  C          0.23666000       0.46687000       0.51831810
    29  C          0.85054000       0.54003000       0.38463190
    30  C          0.14946000       0.45997000       0.61536810
    31  H          0.86753200       0.62879800       0.35052300
    32  H          0.13246800       0.37120200       0.64947700
    33  C          0.91004000       0.41753000       0.34043190
    34  C          0.08996000       0.58247000       0.65956810
    35  C          0.89094000       0.28423000       0.38922000
    36  C          0.10906000       0.71577000       0.61078000
    37  H          0.93521200       0.19978300       0.35715600
    38  H          0.06478800       0.80021700       0.64284400
    39  C          0.80734000       0.27833000       0.48402000
    40  C          0.19266000       0.72167000       0.51598000
    41  H          0.79532800       0.18824100       0.51754500
    42  H          0.20467200       0.81175900       0.48245500
    43  C          0.73874000       0.40113000       0.53315190
    44  C          0.26126000       0.59887000       0.46684810
    45  C          0.53314000       0.26423000       0.78196190
    46  C          0.46686000       0.73577000       0.21803810
    47  C          0.61434000       0.31033000       0.85371190
    48  C          0.38566000       0.68967000       0.14628810
    49  H          0.72752300       0.35024300       0.83782200
    50  H          0.27247700       0.64975700       0.16217800
    51  C          0.52654000       0.29693000       0.94967190
    52  C          0.47346000       0.70307000       0.05032810
    53  C          0.36144000       0.23563000       0.97242180
    54  C          0.63856000       0.76437000       0.02757820
    55  C          0.28974000       0.18253000       0.89940190
    56  C          0.71026000       0.81747000       0.10059810
    57  C          0.37374000       0.19873000       0.80308190
    58  C          0.62626000       0.80127000       0.19691810
    59  H          0.32283500       0.16561600       0.75291700
    60  H          0.67716500       0.83438400       0.24708300
    61  C          0.76654000       0.39333000       0.00682000
    62  C          0.23346000       0.60667000      -0.00682000
    63  H          0.75060700       0.47909400       0.96149800
    64  H          0.24939300       0.52090600       0.03850200
    65  H          0.86952100       0.32106200       0.97814400
    66  H          0.13047900       0.67893800       0.02185600
    67  H          0.79989200       0.41670700       0.06765300
    68  H          0.20010800       0.58329300       0.93234700
    69  C          0.35574000       0.11943000       0.12962000
    70  C          0.64426000       0.88057000       0.87038000
    71  H          0.36151300       0.02712500       0.10511300
    72  H          0.63848700       0.97287500       0.89488700
    73  H          0.28088900       0.12188000       0.19434800
    74  H          0.71911100       0.87812000       0.80565200
    75  H          0.48629700       0.13320000       0.13342400
    76  H          0.51370300       0.86680000       0.86657600
    77  C          0.07544000       0.04294000       0.86012000
    78  C          0.92456000       0.95706000       0.13988000
    79  H          0.01890600       0.11304200       0.81106300
    80  H          0.98109400       0.88695800       0.18893700
    81  H          0.97891700      -0.01226900       0.89273800
    82  H          0.02108300       0.01226900       0.10726200
    83  H          0.18546700       0.97877400       0.82868900
    84  H          0.81453300       0.02122600       0.17131100
    85  Cl         0.80227110       0.92821800       0.40625500
    86  Cl         0.19772890       0.07178200       0.59374500
    87  O          0.63383000       0.00162000       0.62132150
    88  O          0.36617000      -0.00162000       0.37867850
    89  H          0.51239000       0.00849000       0.61683300
    90  H          0.48761000      -0.00849000       0.38316700
    91  H          0.70147000       0.98181600       0.56582400
    92  H          0.29853000       0.01818400       0.43417600
