data_WURGIA
_symmetry_space_group_name_H-M    'P1'
_symmetry_Int_Tables_number       1
loop_
_symmetry_equiv_pos_site_id
_symmetry_equiv_pos_as_xyz
1 x,y,z
_cell_length_a                   9.5415
_cell_length_b                   8.0545
_cell_length_c                   17.4925
_cell_angle_alpha                90.0
_cell_angle_beta                 97.122
_cell_angle_gamma                90.0
loop_
_atom_site_label
_atom_site_type_symbol
_atom_site_fract_x
_atom_site_fract_y
_atom_site_fract_z
     1  I          0.37599600       0.74180700       0.39673300
     2  I          0.12400400       0.24180700       0.10326700
     3  I          0.62400400       0.25819300       0.60326700
     4  I          0.87599600       0.75819300       0.89673300
     5  I          0.10185600       0.61661700       0.42920400
     6  I          0.39814400       0.11661700       0.07079600
     7  I          0.89814400       0.38338300       0.57079600
     8  I          0.60185600       0.88338300       0.92920400
     9  S          0.65222000       0.77983000       0.54300130
    10  S          0.84778000       0.27983000       0.95699870
    11  S          0.34778000       0.22017000       0.45699870
    12  S          0.15222000       0.72017000       0.04300130
    13  N          0.83577000       0.92339000       0.47885000
    14  N          0.66423000       0.42339000       0.02115000
    15  N          0.16423000       0.07661000       0.52115000
    16  N          0.33577000       0.57661000       0.97885000
    17  N          0.89777000       0.91148000       0.55364000
    18  N          0.60223000       0.41148000       0.94636000
    19  N          0.10223000       0.08852000       0.44636000
    20  N          0.39777000       0.58852000       0.05364000
    21  C          0.81348000       0.83491000       0.59525000
    22  C          0.68652000       0.33491000       0.90475000
    23  C          0.18652000       0.16509000       0.40475000
    24  C          0.31348000       0.66509000       0.09525000
    25  C          0.70678000       0.86079000       0.46155000
    26  C          0.79322000       0.36079000       0.03845000
    27  C          0.29322000       0.13921000       0.53845000
    28  C          0.20678000       0.63921000       0.96155000
    29  C          0.84741100       0.80661300       0.67895000
    30  C          0.65258900       0.30661300       0.82105000
    31  C          0.15258900       0.19338700       0.32105000
    32  C          0.34741100       0.69338700       0.17895000
    33  H          0.77110000       0.74810000       0.69780000
    34  H          0.72890000       0.24810000       0.80220000
    35  H          0.22890000       0.25190000       0.30220000
    36  H          0.27110000       0.75190000       0.19780000
    37  H          0.86100000       0.91150000       0.70480000
    38  H          0.63900000       0.41150000       0.79520000
    39  H          0.13900000       0.08850000       0.29520000
    40  H          0.36100000       0.58850000       0.20480000
    41  H          0.93230000       0.74200000       0.68850000
    42  H          0.56770000       0.24200000       0.81150000
    43  H          0.06770000       0.25800000       0.31150000
    44  H          0.43230000       0.75800000       0.18850000
    45  S          0.61923000       0.86563000       0.37104140
    46  S          0.88077000       0.36563000       0.12895860
    47  S          0.38077000       0.13437000       0.62895860
    48  S          0.11923000       0.63437000       0.87104140
    49  H          0.88510000       0.95412000       0.43450000
    50  H          0.61490000       0.45412000       0.06550000
    51  H          0.11490000       0.04588000       0.56550000
    52  H          0.38510000       0.54588000       0.93450000
    53  I          0.27554700       0.65520800       0.62133400
    54  I          0.22445300       0.15520800       0.87866600
    55  I          0.72445300       0.34479200       0.37866600
    56  I          0.77554700       0.84479200       0.12133400
    57  I          0.43480700       0.73840800       0.75726400
    58  I          0.06519300       0.23840800       0.74273600
    59  I          0.56519300       0.26159200       0.24273600
    60  I          0.93480700       0.76159200       0.25726400
