data_WUTDEX
_symmetry_space_group_name_H-M    'P1'
_symmetry_Int_Tables_number       1
loop_
_symmetry_equiv_pos_site_id
_symmetry_equiv_pos_as_xyz
1 x,y,z
_cell_length_a                   7.816614
_cell_length_b                   8.991316
_cell_length_c                   26.7445
_cell_angle_alpha                90.0
_cell_angle_beta                 95.0283
_cell_angle_gamma                90.0
loop_
_atom_site_label
_atom_site_type_symbol
_atom_site_fract_x
_atom_site_fract_y
_atom_site_fract_z
     1  N          0.23713000       0.44793000       0.07760800
     2  N          0.76287000       0.94793000       0.42239200
     3  N          0.76287000       0.55207000       0.92239200
     4  N          0.23713000       0.05207000       0.57760800
     5  C          0.25973000       0.48013000       0.98901100
     6  C          0.74027000       0.98013000       0.51098900
     7  C          0.74027000       0.51987000       0.01098900
     8  C          0.25973000       0.01987000       0.48901100
     9  N          0.21193000       0.62243000       0.98944200
    10  N          0.78807000       0.12243000       0.51055800
    11  N          0.78807000       0.37757000       0.01055800
    12  N          0.21193000       0.87757000       0.48944200
    13  C          0.27123000       0.39013000       0.03330900
    14  C          0.72877000       0.89013000       0.46669100
    15  C          0.72877000       0.60987000       0.96669100
    16  C          0.27123000       0.10987000       0.53330900
    17  C          0.19143000       0.59224000       0.07838100
    18  C          0.80857000       0.09224000       0.42161900
    19  C          0.80857000       0.40776000       0.92161900
    20  C          0.19143000       0.90776000       0.57838100
    21  C          0.17793000       0.67903000       0.03370110
    22  C          0.82207000       0.17903000       0.46629890
    23  C          0.82207000       0.32097000       0.96629890
    24  C          0.17793000       0.82097000       0.53370110
    25  C          0.29964000       0.41524000       0.94367890
    26  C          0.70036000       0.91524000       0.55632110
    27  C          0.70036000       0.58476000       0.05632110
    28  C          0.29964000       0.08476000       0.44367890
    29  H          0.29300000       0.47270000       0.91470000
    30  H          0.70700000       0.97270000       0.58530000
    31  H          0.70700000       0.52730000       0.08530000
    32  H          0.29300000       0.02730000       0.41470000
    33  C          0.15474000       0.66065000       0.12412120
    34  C          0.84526000       0.16065000       0.37587880
    35  C          0.84526000       0.33935000       0.87587880
    36  C          0.15474000       0.83935000       0.62412120
    37  H          0.16330000       0.60620000       0.15380000
    38  H          0.83670000       0.10620000       0.34620000
    39  H          0.83670000       0.39380000       0.84620000
    40  H          0.16330000       0.89380000       0.65380000
    41  C          0.32024000       0.23933000       0.02936130
    42  C          0.67976000       0.73933000       0.47063870
    43  C          0.67976000       0.76067000       0.97063870
    44  C          0.32024000       0.26067000       0.52936130
    45  H          0.32850000       0.17910000       0.05770000
    46  H          0.67150000       0.67910000       0.44230000
    47  H          0.67150000       0.82090000       0.94230000
    48  H          0.32850000       0.32090000       0.55770000
    49  C          0.34705000       0.27234000       0.94134860
    50  C          0.65295000       0.77234000       0.55865140
    51  C          0.65295000       0.72766000       0.05865140
    52  C          0.34705000       0.22766000       0.44134860
    53  H          0.37480000       0.23220000       0.91100000
    54  H          0.62520000       0.73220000       0.58900000
    55  H          0.62520000       0.76780000       0.08900000
    56  H          0.37480000       0.26780000       0.41100000
    57  C          0.35505000       0.18244000       0.98467850
    58  C          0.64495000       0.68244000       0.51532150
    59  C          0.64495000       0.81756000       0.01532150
    60  C          0.35505000       0.31756000       0.48467850
    61  H          0.38460000       0.08260000       0.98240000
    62  H          0.61540000       0.58260000       0.51760000
    63  H          0.61540000       0.91740000       0.01760000
    64  H          0.38460000       0.41740000       0.48240000
    65  C          0.12814000       0.82994000       0.03636140
    66  C          0.87186000       0.32994000       0.46363860
    67  C          0.87186000       0.17006000       0.96363860
    68  C          0.12814000       0.67006000       0.53636140
    69  H          0.11870000       0.88770000       0.00740000
    70  H          0.88130000       0.38770000       0.49260000
    71  H          0.88130000       0.11230000       0.99260000
    72  H          0.11870000       0.61230000       0.50740000
    73  C          0.10695000       0.80676000       0.12438170
    74  C          0.89305000       0.30676000       0.37561830
    75  C          0.89305000       0.19324000       0.87561830
    76  C          0.10695000       0.69324000       0.62438170
    77  H          0.08230000       0.85140000       0.15430000
    78  H          0.91770000       0.35140000       0.34570000
    79  H          0.91770000       0.14860000       0.84570000
    80  H          0.08230000       0.64860000       0.65430000
    81  C          0.09465000       0.88975000       0.07981190
    82  C          0.90535000       0.38975000       0.42018810
    83  C          0.90535000       0.11025000       0.92018810
    84  C          0.09465000       0.61025000       0.57981190
    85  H          0.06220000      -0.01090000       0.08070000
    86  H          0.93780000       0.48910000       0.41930000
    87  H          0.93780000       0.01090000       0.91930000
    88  H          0.06220000       0.51090000       0.58070000
    89  O          0.26852000       0.27932000       0.16764700
    90  O          0.73148000       0.77932000       0.33235300
    91  O          0.73148000       0.72068000       0.83235300
    92  O          0.26852000       0.22068000       0.66764700
    93  H          0.24720000       0.32730000       0.14180000
    94  H          0.75280000       0.82730000       0.35820000
    95  H          0.75280000       0.67270000       0.85820000
    96  H          0.24720000       0.17270000       0.64180000
    97  C          0.97007000       0.22123000       0.15024900
    98  C          0.02993000       0.72123000       0.34975100
    99  C          0.02993000       0.77877000       0.84975100
   100  C          0.97007000       0.27877000       0.65024900
   101  H          0.96480000       0.28240000       0.12210000
   102  H          0.03520000       0.78240000       0.37790000
   103  H          0.03520000       0.71760000       0.87790000
   104  H          0.96480000       0.21760000       0.62210000
   105  C          0.12333000       0.20673000       0.17937900
   106  C          0.87667000       0.70673000       0.32062100
   107  C          0.87667000       0.79327000       0.82062100
   108  C          0.12333000       0.29327000       0.67937900
   109  C          0.13903000       0.11663000       0.22173800
   110  C          0.86097000       0.61663000       0.27826200
   111  C          0.86097000       0.88337000       0.77826200
   112  C          0.13903000       0.38337000       0.72173800
   113  C          0.30824000       0.09213000       0.25184900
   114  C          0.69176000       0.59213000       0.24815100
   115  C          0.69176000       0.90787000       0.74815100
   116  C          0.30824000       0.40787000       0.75184900
   117  H          0.39000000       0.16420000       0.24020000
   118  H          0.61000000       0.66420000       0.25980000
   119  H          0.61000000       0.83580000       0.75980000
   120  H          0.39000000       0.33580000       0.74020000
   121  C         -0.00994000       0.04503000       0.23339100
   122  C          0.00994000       0.54503000       0.26660900
   123  C          0.00994000       0.95497000       0.76660900
   124  C         -0.00994000       0.45497000       0.73339100
   125  H         -0.00590000      -0.01470000       0.26190000
   126  H          0.00590000       0.48530000       0.23810000
   127  H          0.00590000       0.01470000       0.73810000
   128  H         -0.00590000       0.51470000       0.76190000
   129  C          0.82417000       0.14693000       0.16185100
   130  C          0.17583000       0.64693000       0.33814900
   131  C          0.17583000       0.85307000       0.83814900
   132  C          0.82417000       0.35307000       0.66185100
   133  C          0.83706000       0.05933000       0.20433120
   134  C          0.16294000       0.55933000       0.29566880
   135  C          0.16294000       0.94067000       0.79566880
   136  C          0.83706000       0.44067000       0.70433120
   137  H          0.74070000       0.00900000       0.21350000
   138  H          0.25930000       0.50900000       0.28650000
   139  H          0.25930000      -0.00900000       0.78650000
   140  H          0.74070000       0.49100000       0.71350000
   141  C          0.65766000       0.16194000       0.12870120
   142  C          0.34234000       0.66194000       0.37129880
   143  C          0.34234000       0.83806000       0.87129880
   144  C          0.65766000       0.33806000       0.62870120
   145  H          0.58440000       0.23240000       0.14330000
   146  H          0.41560000       0.73240000       0.35670000
   147  H          0.41560000       0.76760000       0.85670000
   148  H          0.58440000       0.26760000       0.64330000
   149  H          0.60130000       0.06700000       0.12580000
   150  H          0.39870000       0.56700000       0.37420000
   151  H          0.39870000       0.93300000       0.87420000
   152  H          0.60130000       0.43300000       0.62580000
   153  H          0.68180000       0.19560000       0.09600000
   154  H          0.31820000       0.69560000       0.40400000
   155  H          0.31820000       0.80440000       0.90400000
   156  H          0.68180000       0.30440000       0.59600000
   157  C          0.37874000       0.93766000       0.24332130
   158  C          0.62126000       0.43766000       0.25667870
   159  C          0.62126000       0.06234000       0.75667870
   160  C          0.37874000       0.56234000       0.74332130
   161  H          0.30060000       0.86440000       0.25410000
   162  H          0.69940000       0.36440000       0.24590000
   163  H          0.69940000       0.13560000       0.74590000
   164  H          0.30060000       0.63560000       0.75410000
   165  H          0.48820000       0.92680000       0.26220000
   166  H          0.51180000       0.42680000       0.23780000
   167  H          0.51180000       0.07320000       0.73780000
   168  H          0.48820000       0.57320000       0.76220000
   169  H          0.39200000       0.92430000       0.20830000
   170  H          0.60800000       0.42430000       0.29170000
   171  H          0.60800000       0.07570000       0.79170000
   172  H          0.39200000       0.57570000       0.70830000
   173  C          0.29805000       0.11864000       0.30774110
   174  C          0.70195000       0.61864000       0.19225890
   175  C          0.70195000       0.88136000       0.69225890
   176  C          0.29805000       0.38136000       0.80774110
   177  H          0.25390000       0.21650000       0.31290000
   178  H          0.74610000       0.71650000       0.18710000
   179  H          0.74610000       0.78350000       0.68710000
   180  H          0.25390000       0.28350000       0.81290000
   181  H          0.41060000       0.10970000       0.32490000
   182  H          0.58940000       0.60970000       0.17510000
   183  H          0.58940000       0.89030000       0.67510000
   184  H          0.41060000       0.39030000       0.82490000
   185  H          0.22310000       0.04610000       0.32060000
   186  H          0.77690000       0.54610000       0.17940000
   187  H          0.77690000       0.95390000       0.67940000
   188  H          0.22310000       0.45390000       0.82060000
