data_WUVVOY
_symmetry_space_group_name_H-M    'P1'
_symmetry_Int_Tables_number       1
loop_
_symmetry_equiv_pos_site_id
_symmetry_equiv_pos_as_xyz
1 x,y,z
_cell_length_a                   6.2984
_cell_length_b                   6.3464
_cell_length_c                   12.1437
_cell_angle_alpha                88.67612
_cell_angle_beta                 89.30912
_cell_angle_gamma                80.70812
loop_
_atom_site_label
_atom_site_type_symbol
_atom_site_fract_x
_atom_site_fract_y
_atom_site_fract_z
     1  F          0.03002000       0.10782000       0.75661000
     2  F          0.96998000       0.89218000       0.24339000
     3  F          0.85042000       0.76661000       0.65491000
     4  F          0.14958000       0.23339000       0.34509000
     5  F          0.60612000       0.54401000       0.78021000
     6  F          0.39388000       0.45599000       0.21979000
     7  F          0.19552000       0.71222000       0.83011000
     8  F          0.80448000       0.28778000       0.16989000
     9  C          0.31633000       0.82503000       0.76811000
    10  C          0.68367000       0.17497000       0.23189000
    11  C          0.64792000       0.85463000       0.67781000
    12  C          0.35208000       0.14537000       0.32219000
    13  C          0.52453000       0.73902000       0.74231000
    14  C          0.47547000       0.26098000       0.25769000
    15  C          0.35113000       0.14352000       0.66151000
    16  C          0.64887000       0.85648000       0.33849000
    17  C          0.26662000       0.34663000       0.61381000
    18  C          0.73338000       0.65337000       0.38619000
    19  C          0.23193000       0.02643000       0.72871000
    20  C          0.76807000       0.97357000       0.27129000
    21  C          0.68763000       0.17743000       0.56591000
    22  C          0.31237000       0.82257000       0.43409000
    23  C          0.74132000       0.31442000       0.50601000
    24  C          0.25868000       0.68558000       0.49399000
    25  C          0.56723000       0.05552000       0.63561000
    26  C          0.43277000       0.94448000       0.36439000
    27  C          0.24292000       0.51032000       0.55991000
    28  C          0.75708000       0.48968000       0.44009000
    29  C          0.36813000       0.87603000       0.05461000
    30  C          0.63187000       0.12397000       0.94539000
    31  C          0.28943000       0.08403000       0.02271000
    32  C          0.71057000       0.91597000       0.97729000
    33  C          0.57863000       0.79253000       0.03161000
    34  C          0.42137000       0.20747000       0.96839000
    35  H          0.14904000       0.13603000       0.03871700
    36  H          0.85096000       0.86397000       0.96128300
    37  H          0.27403000       0.78503000       0.09621800
    38  H          0.72597000       0.21497000       0.90378200
    39  H          0.63003000       0.64703000       0.05411600
    40  H          0.36997000       0.35297000       0.94588400
