data_WUWLOQ
_symmetry_space_group_name_H-M    'P1'
_symmetry_Int_Tables_number       1
loop_
_symmetry_equiv_pos_site_id
_symmetry_equiv_pos_as_xyz
1 x,y,z
_cell_length_a                   13.4743
_cell_length_b                   13.5073
_cell_length_c                   14.0133
_cell_angle_alpha                103.973
_cell_angle_beta                 99.343
_cell_angle_gamma                118.613
loop_
_atom_site_label
_atom_site_type_symbol
_atom_site_fract_x
_atom_site_fract_y
_atom_site_fract_z
     1  C          0.88376000       0.06736000       0.31015000
     2  C          0.24066000       0.65134000       0.77005000
     3  H          0.20740000       0.56980000       0.72190000
     4  H          0.18370000       0.67440000       0.75420000
     5  C          0.25216000       0.73364000       0.95495000
     6  H          0.22020000       0.77630000       0.93550000
     7  C          0.28856000       0.74934000       0.05985000
     8  H          0.28210000       0.80330000       0.11000000
     9  C          0.38576000       0.71154000       0.20335000
    10  H          0.34640000       0.74150000       0.24270000
    11  H          0.37200000       0.63810000       0.21330000
    12  C          0.33426000       0.68414000       0.08855000
    13  C          0.34106000       0.60384000       0.01365000
    14  H          0.36970000       0.55880000       0.03290000
    15  C          0.30596000       0.58784000       0.90935000
    16  H          0.31100000       0.53260000       0.85950000
    17  C          0.26326000       0.65504000       0.88015000
    18  C          0.07837000       0.11397000       0.30465000
    19  H          0.13030000       0.08860000       0.29450000
    20  C          0.04436000       0.27036000       0.34305000
    21  H          0.07300000       0.35230000       0.36030000
    22  C          0.92866000       0.18976000       0.33595000
    23  H          0.87970000       0.21820000       0.34880000
    24  C          0.71116000       0.85394000       0.24685000
    25  H          0.76200000       0.82820000       0.23340000
    26  C          0.75696000       0.97674000       0.29085000
    27  C          0.67766000       0.00976000       0.31045000
    28  H          0.70500000       0.09130000       0.34070000
    29  C          0.55856000       0.92314000       0.28585000
    30  H          0.50660000       0.94700000       0.30040000
    31  C          0.59246000       0.77014000       0.22285000
    32  H          0.56370000       0.68810000       0.19360000
    33  C          0.23296000       0.31426000       0.31545000
    34  H          0.28830000       0.28960000       0.33240000
    35  H          0.26710000       0.39640000       0.36300000
    36  C          0.21446000       0.22406000       0.12845000
    37  H          0.24200000       0.17850000       0.14860000
    38  C          0.21046000       0.30846000       0.20285000
    39  C          0.17716000       0.38196000       0.17506000
    40  H          0.17950000       0.44270000       0.22570000
    41  C          0.17826000       0.20567000       0.02476000
    42  H          0.18040000       0.14780000       0.97480000
    43  C          0.13836000       0.27526000      -0.00385000
    44  C          0.14046000       0.36466000       0.07195000
    45  H          0.11680000       0.41320000       0.05250000
    46  C          0.08466000       0.24857000       0.87965000
    47  H          0.10030000       0.32300000       0.87060000
    48  H          0.12230000       0.21720000       0.83920000
    49  C          0.91127000       0.03997000       0.80165000
    50  H          0.96290000       0.01420000       0.79180000
    51  C          0.79047000       0.95593000       0.77475000
    52  H          0.76150000       0.87370000       0.74760000
    53  C          0.88047000       0.19757000       0.85415000
    54  H          0.91110000       0.28020000       0.88120000
    55  C          0.75847000       0.11406000       0.82625000
    56  H          0.70740000       0.14120000       0.83400000
    57  C          0.71246000      -0.00856000       0.78735000
    58  C          0.58526000       0.90194000       0.77085000
    59  C          0.53886000       0.77793000       0.73615000
    60  H          0.58530000       0.74890000       0.71610000
    61  C          0.42477000       0.69904000       0.73185000
    62  H          0.39460000       0.61650000       0.70940000
    63  C          0.39426000       0.85494000       0.78425000
    64  H          0.34270000       0.87970000       0.79790000
    65  C          0.50716000       0.93833000       0.79045000
    66  H          0.53200000       0.01950000       0.80780000
    67  C          0.96446000       0.03246000       0.29865000
    68  H          0.94040000       0.95220000       0.28660000
    69  N          0.35685000       0.73775000       0.75886000
    70  N          0.95365000       0.15845000       0.84216000
    71  N          0.11465000       0.22975000       0.32494000
    72  N          0.51585000       0.80395000       0.24064000
    73  C          0.62487000       0.56163000       0.84025000
    74  C          0.61046000       0.51234000       0.72785000
    75  C          0.61096000       0.40844000       0.69365000
    76  H          0.62200000       0.37260000       0.73980000
    77  C          0.59486000       0.35804000       0.59055000
    78  H          0.59700000       0.28910000       0.56550000
    79  C          0.57546000       0.41284000       0.52525000
    80  H          0.56080000       0.37940000       0.45430000
    81  C          0.57786000       0.51764000       0.56585000
    82  C          0.55506000       0.57314000       0.49076000
    83  C          0.58057000       0.74234000       0.45645000
    84  H          0.49580000       0.70390000       0.42110000
    85  H          0.61650000       0.72680000       0.40470000
    86  C          0.63757000       0.87764000       0.50765000
    87  C          0.56647000       0.92094000       0.52905000
    88  H          0.48490000       0.86730000       0.51400000
    89  C          0.75727000       0.95484000       0.52595000
    90  H          0.80370000       0.92420000       0.50980000
    91  C          0.61736000       0.04606000       0.57335000
    92  C          0.80867000       0.07987000       0.56875000
    93  H          0.89010000       0.13260000       0.58250000
    94  C          0.73946000       0.12516000       0.59075000
    95  C          0.90356000       0.33336000       0.66385000
    96  H          0.92520000       0.34570000       0.60310000
    97  H          0.95040000       0.30720000       0.69730000
    98  C          0.92547000       0.44686000       0.73705000
    99  H          0.00620000       0.51380000       0.75150000
   100  H          0.86970000       0.46610000       0.70730000
   101  C          0.39327000       0.09836000       0.64605000
   102  H          0.40780000       0.16360000       0.62120000
   103  H          0.30830000       0.04870000       0.63480000
   104  C          0.43326000       0.02326000       0.58835000
   105  H          0.42030000       0.95920000       0.61440000
   106  H          0.38730000      -0.01390000       0.51490000
   107  C          0.40117000       0.18577000       0.81476000
   108  H          0.31750000       0.12150000       0.79390000
   109  H          0.40480000       0.25550000       0.80380000
   110  C          0.46007000       0.21877000       0.92686000
   111  H          0.54010000       0.29040000       0.95080000
   112  H          0.41480000       0.23610000       0.96780000
   113  C          0.48117000       0.12157000       0.04086000
   114  H          0.40650000       0.09460000       0.05580000
   115  H          0.54030000       0.20330000       0.08990000
   116  C          0.52286000       0.03797000       0.04986000
   117  H          0.52600000       0.02900000       0.11670000
   118  H          0.46850000       0.95840000      -0.00460000
   119  C          0.90698000       0.51937000       0.90336000
   120  H          0.87300000       0.55460000       0.86730000
   121  H         -0.01260000       0.58290000       0.94900000
   122  C          0.86517000       0.30686000       0.13795000
   123  H          0.94270000       0.37190000       0.18790000
   124  H          0.81430000       0.26720000       0.17580000
   125  C          0.81147000       0.35797000       0.08026000
   126  H          0.73330000       0.29300000       0.03090000
   127  H          0.80100000       0.41420000       0.12860000
   128  C          0.83137000       0.46047000       0.96476000
   129  H          0.81970000       0.51810000       0.00960000
   130  H          0.75340000       0.39220000       0.91760000
   131  C          0.64067000       0.90673000       0.01795000
   132  H          0.55980000       0.86000000       0.01000000
   133  C          0.70526000       0.85334000       0.00775000
   134  C          0.69636000       0.03136000       0.04015000
   135  C          0.81736000       0.10096000       0.05685000
   136  C          0.88247000       0.04657000       0.04875000
   137  H          0.96400000       0.09340000       0.05970000
   138  C          0.82737000       0.92513000       0.02495000
   139  H          0.87160000       0.88960000       0.01990000
   140  C          0.64767000       0.71954000       0.97945000
   141  H          0.69770000       0.70300000       0.02200000
   142  H          0.57060000       0.68440000      -0.00970000
   143  N          0.59805000       0.57125000       0.66764000
   144  O          0.50535000       0.51536000       0.39894000
   145  O          0.59644000       0.69036000       0.53373000
   146  O          0.62406000       0.50795000       0.89754000
   147  O          0.63264000       0.66796000       0.86873000
   148  O          0.55724000       0.09954000       0.60283000
   149  O          0.45864000       0.14634000       0.75284000
   150  O          0.46475000       0.11894000       0.93814000
   151  O          0.87844000       0.22134000       0.06743000
   152  O          0.63914000       0.09124000       0.03984000
   153  O          0.77864000       0.24474000       0.63464000
   154  O          0.88674000       0.41974000       0.02574000
   155  O          0.90865000       0.42655000       0.83034000
   156  C          0.87557000       0.54987000       0.51236000
   157  H          0.85250000       0.54720000       0.57340000
   158  H          0.84710000       0.59030000       0.47950000
   159  H          0.96110000       0.59300000       0.53140000
   160  C          0.82327000       0.42598000       0.43987000
   161  N          0.78187000       0.32857000       0.38376000
   162  C          0.06347000       0.91378000       0.50426000
   163  H          0.10760000       0.93730000       0.45790000
   164  H          0.09490000       0.87990000       0.54350000
   165  H          0.07050000       0.98350000       0.55090000
   166  C          0.93901000       0.82428000       0.44477000
   167  N          0.83883000       0.75137000       0.39806000
   168  C          0.04218000       0.69788000       0.21967000
   169  H          0.12160000       0.76900000       0.24640000
   170  H          0.03610000       0.63840000       0.16090000
   171  H          0.02510000       0.66490000       0.27270000
   172  C          0.95692000       0.72947000       0.18746000
   173  N          0.88623000       0.75107000       0.16426000
   174  C          0.61778000       0.44049000       0.24727000
   175  H          0.67020000       0.51210000       0.30860000
   176  H          0.66430000       0.42060000       0.21120000
   177  H          0.56820000       0.37430000       0.26660000
   178  C          0.54229000       0.46228000       0.17927000
   179  N          0.48658000       0.48356000       0.12827000
   180  F          0.22864000       0.39944000       0.57193000
   181  F          0.33864000       0.40334000       0.71343000
   182  F          0.27204000       0.25555000       0.55554000
   183  F          0.19374000       0.20974000       0.68073000
   184  F          0.08414000       0.20514000       0.53833000
   185  F          0.14864000       0.35044000       0.69483000
   186  P          0.21188180       0.30379180       0.62474140
   187  F          0.09014000       0.53504000       0.34723000
   188  F          0.12804000       0.56184000       0.51634000
   189  F          0.12404000       0.70484000       0.46113000
   190  F          0.26254000       0.57004000       0.43994000
   191  F          0.26044000       0.71404000       0.38623000
   192  F          0.29824000       0.73894000       0.55483000
   193  P          0.19389180       0.63874170       0.45156150
   194  F          0.01755000       0.72204000       0.79434000
   195  F          0.12685000       0.82555000       0.70744000
   196  F          0.17975000       0.91055000       0.87854000
   197  F          0.10584000       0.98034000       0.77594000
   198  F         -0.00495000       0.87675000       0.86114000
   199  F          0.94356000       0.79275000       0.68914000
   200  P          0.06012000       0.85026190       0.78411170
   201  F          0.30715000       0.08406000       0.39694000
   202  F          0.38655000       0.18464000       0.29654000
   203  F          0.40225000       0.03125000       0.21314000
   204  F          0.32274000       0.92936000       0.31153000
   205  F          0.48404000       0.11874000       0.38544000
   206  F          0.22474000      -0.00474000       0.22344000
   207  P          0.35469190       0.05807190       0.30514150
