data_WUYPOX
_symmetry_space_group_name_H-M    'P1'
_symmetry_Int_Tables_number       1
loop_
_symmetry_equiv_pos_site_id
_symmetry_equiv_pos_as_xyz
1 x,y,z
_cell_length_a                   12.087511
_cell_length_b                   8.06959
_cell_length_c                   24.6102
_cell_angle_alpha                90.0
_cell_angle_beta                 101.1432
_cell_angle_gamma                90.0
loop_
_atom_site_label
_atom_site_type_symbol
_atom_site_fract_x
_atom_site_fract_y
_atom_site_fract_z
     1  Cl         0.43587300       0.07017500       0.69419213
     2  Cl         0.06412700       0.57017500       0.80580787
     3  Cl         0.56412700       0.92982500       0.30580787
     4  Cl         0.93587300       0.42982500       0.19419213
     5  O          0.64197900       0.44155120       0.63346400
     6  O          0.85802100       0.94155120       0.86653600
     7  O          0.35802100       0.55844880       0.36653600
     8  O          0.14197900       0.05844880       0.13346400
     9  O          0.56764900       0.19023130       0.61217400
    10  O          0.93235100       0.69023130       0.88782600
    11  O          0.43235100       0.80976870       0.38782600
    12  O          0.06764900       0.30976870       0.11217400
    13  O          0.63818800       0.07543120       0.89943400
    14  O          0.86181200       0.57543120       0.60056600
    15  O          0.36181200       0.92456880       0.10056600
    16  O          0.13818800       0.42456880       0.39943400
    17  O          0.76390800       0.27037130       0.91028400
    18  O          0.73609200       0.77037130       0.58971600
    19  O          0.23609200       0.72962870       0.08971600
    20  O          0.26390800       0.22962870       0.41028400
    21  N          0.69168900       0.18509130       0.88134400
    22  N          0.80831100       0.68509130       0.61865600
    23  N          0.30831100       0.81490870       0.11865600
    24  N          0.19168900       0.31490870       0.38134400
    25  C          0.62647100       0.26355150       0.70768500
    26  C          0.87352900       0.76355150       0.79231500
    27  C          0.37352900       0.73644850       0.29231500
    28  C          0.12647100       0.23644850       0.20768500
    29  C          0.55600100       0.16182150       0.73223500
    30  C          0.94399900       0.66182150       0.76776500
    31  C          0.44399900       0.83817850       0.26776500
    32  C          0.05600100       0.33817850       0.23223500
    33  C          0.57687100       0.13632150       0.78929500
    34  C          0.92312900       0.63632150       0.71070500
    35  C          0.42312900       0.86367850       0.21070500
    36  C          0.07687100       0.36367850       0.28929500
    37  H          0.52920000       0.06690000       0.80590000
    38  H          0.97080000       0.56690000       0.69410000
    39  H          0.47080000       0.93310000       0.19410000
    40  H          0.02920000       0.43310000       0.30590000
    41  C          0.66862100       0.21453150       0.82118500
    42  C          0.83137900       0.71453150       0.67881500
    43  C          0.33137900       0.78546850       0.17881500
    44  C          0.16862100       0.28546850       0.32118500
    45  C          0.73956110       0.31852170       0.79904500
    46  C          0.76043890       0.81852170       0.70095500
    47  C          0.26043890       0.68147830       0.20095500
    48  C          0.23956110       0.18147830       0.29904500
    49  H          0.80120000       0.37260000       0.82200000
    50  H          0.69880000       0.87260000       0.67800000
    51  H          0.19880000       0.62740000       0.17800000
    52  H          0.30120000       0.12740000       0.32200000
    53  C          0.71721110       0.34070180       0.74214500
    54  C          0.78278890       0.84070180       0.75785500
    55  C          0.28278890       0.65929820       0.25785500
    56  C          0.21721110       0.15929820       0.24214500
    57  H          0.76520000       0.41070000       0.72600000
    58  H          0.73480000       0.91070000       0.77400000
    59  H          0.23480000       0.58930000       0.27400000
    60  H          0.26520000       0.08930000       0.22600000
    61  C          0.61162100       0.30665160       0.64683500
    62  C          0.88837900       0.80665160       0.85316500
    63  C          0.38837900       0.69334840       0.35316500
    64  C          0.11162100       0.19334840       0.14683500
    65  H          0.56820000       0.23030000       0.57661100
    66  H          0.93180000       0.73030000       0.92338900
    67  H          0.43180000       0.76970000       0.42338900
    68  H          0.06820000       0.26970000       0.07661100
    69  Cl         0.77647300       0.41014400       0.05383513
    70  Cl         0.72352700       0.91014400       0.44616487
    71  Cl         0.22352700       0.58985600       0.94616487
    72  Cl         0.27647300       0.08985600       0.55383513
    73  O          0.51496800       0.60528130       0.12896400
    74  O          0.98503200       0.10528130       0.37103600
    75  O          0.48503200       0.39471870       0.87103600
    76  O          0.01496800       0.89471870       0.62896400
    77  O          0.70335800       0.59355140       0.14746400
    78  O          0.79664200       0.09355140       0.35253600
    79  O          0.29664200       0.40644860       0.85253600
    80  O          0.20335800       0.90644860       0.64746400
    81  O          0.65421900       0.68033150       0.85872600
    82  O          0.84578100       0.18033150       0.64127400
    83  O          0.34578100       0.31966850       0.14127400
    84  O          0.15421900       0.81966850       0.35872600
    85  O          0.49099900       0.79252130       0.85783600
    86  O          0.00900100       0.29252130       0.64216400
    87  O          0.50900100       0.20747870       0.14216400
    88  O         -0.00900100       0.70747870       0.35783600
    89  N          0.57867900       0.72654140       0.88185600
    90  N          0.92132100       0.22654140       0.61814400
    91  N          0.42132100       0.27345860       0.11814400
    92  N          0.07867900       0.77345860       0.38185600
    93  C          0.60901100       0.63901150       0.05405500
    94  C          0.89098900       0.13901150       0.44594500
    95  C          0.39098900       0.36098850       0.94594500
    96  C          0.10901100       0.86098850       0.55405500
    97  C          0.68021100       0.55902150       0.02378500
    98  C          0.81978900       0.05902150       0.47621500
    99  C          0.31978900       0.44097850       0.97621500
   100  C          0.18021100       0.94097850       0.52378500
   101  C          0.67249100       0.58905150       0.96744500
   102  C          0.82750900       0.08905150       0.53255500
   103  C          0.32750900       0.41094850       0.03255500
   104  C          0.17249100       0.91094850       0.46744500
   105  H          0.72110000       0.53470000       0.94710000
   106  H          0.77890000       0.03470000       0.55290000
   107  H          0.27890000       0.46530000       0.05290000
   108  H          0.22110000       0.96530000       0.44710000
   109  C          0.59194100       0.70030150       0.94208500
   110  C          0.90805900       0.20030150       0.55791500
   111  C          0.40805900       0.29969850       0.05791500
   112  C          0.09194100       0.79969850       0.44208500
   113  C          0.51996110       0.78311170       0.97014500
   114  C          0.98003890       0.28311170       0.52985500
   115  C          0.48003890       0.21688830       0.02985500
   116  C          0.01996110       0.71688830       0.47014500
   117  H          0.46570000       0.85950000       0.95160000
   118  H          0.03430000       0.35950000       0.54840000
   119  H          0.53430000       0.14050000       0.04840000
   120  H          0.96570000       0.64050000       0.45160000
   121  C          0.52944110       0.75120170       0.02624500
   122  C          0.97055890       0.25120170       0.47375500
   123  C          0.47055890       0.24879830       0.97375500
   124  C          0.02944110       0.74879830       0.52624500
   125  H          0.48080000       0.80680000       0.04630000
   126  H          0.01920000       0.30680000       0.45370000
   127  H          0.51920000       0.19320000       0.95370000
   128  H          0.98080000       0.69320000       0.54630000
   129  C          0.60568100       0.60941150       0.11444500
   130  C          0.89431900       0.10941150       0.38555500
   131  C          0.39431900       0.39058850       0.88555500
   132  C          0.10568100       0.89058850       0.61444500
   133  H          0.69220000       0.57340000       0.18801300
   134  H          0.80780000       0.07340000       0.31198700
   135  H          0.30780000       0.42660000       0.81198700
   136  H          0.19220000       0.92660000       0.68801300
   137  N          0.57221900       0.28775140       0.51053400
   138  N          0.92778100       0.78775140       0.98946600
   139  N          0.42778100       0.71224860       0.48946600
   140  N          0.07221900       0.21224860       0.01053400
   141  N          0.67380900       0.53108150       0.24725400
   142  N          0.82619100       0.03108150       0.25274600
   143  N          0.32619100       0.46891850       0.75274600
   144  N          0.17380900       0.96891850       0.74725400
   145  C          0.64224120       0.41360170       0.50570500
   146  C          0.85775880       0.91360170      -0.00570500
   147  C          0.35775880       0.58639830       0.49429500
   148  C          0.14224120       0.08639830       0.00570500
   149  H          0.67780000       0.47000000       0.53830000
   150  H          0.82220000       0.97000000       0.96170000
   151  H          0.32220000       0.53000000       0.46170000
   152  H          0.17780000       0.03000000       0.03830000
   153  C          0.66500110       0.46500170       0.45522500
   154  C          0.83499890       0.96500170       0.04477500
   155  C          0.33499890       0.53499830       0.54477500
   156  C          0.16500110       0.03499830       0.95522500
   157  H          0.71510000       0.55480000       0.45370000
   158  H          0.78490000       0.05480000       0.04630000
   159  H          0.28490000       0.44520000       0.54630000
   160  H          0.21510000       0.94520000       0.95370000
   161  C          0.61383100       0.38400160       0.40671500
   162  C          0.88616900       0.88400160       0.09328500
   163  C          0.38616900       0.61599840       0.59328500
   164  C          0.11383100       0.11599840       0.90671500
   165  C          0.54069110       0.25415170       0.41208500
   166  C          0.95930890       0.75415170       0.08791500
   167  C          0.45930890       0.74584830       0.58791500
   168  C          0.04069110       0.24584830       0.91208500
   169  H          0.50370000       0.19560000       0.38020000
   170  H         -0.00370000       0.69560000       0.11980000
   171  H          0.49630000       0.80440000       0.61980000
   172  H          0.00370000       0.30440000       0.88020000
   173  C          0.52215110       0.21083180       0.46407500
   174  C          0.97784890       0.71083180       0.03592500
   175  C          0.47784890       0.78916820       0.53592500
   176  C          0.02215110       0.28916820       0.96407500
   177  H          0.47160000       0.12250000       0.46690000
   178  H          0.02840000       0.62250000       0.03310000
   179  H          0.52840000       0.87750000       0.53310000
   180  H          0.97160000       0.37750000       0.96690000
   181  C          0.57619110       0.46059170       0.25273500
   182  C          0.92380890       0.96059170       0.24726500
   183  C          0.42380890       0.53940830       0.74726500
   184  C          0.07619110       0.03940830       0.75273500
   185  H          0.51990000       0.44400000       0.22050000
   186  H          0.98010000       0.94400000       0.27950000
   187  H          0.48010000       0.55600000       0.77950000
   188  H          0.01990000       0.05600000       0.72050000
   189  C          0.55386110       0.41087160       0.30343500
   190  C          0.94613890       0.91087160       0.19656500
   191  C          0.44613890       0.58912840       0.69656500
   192  C          0.05386110       0.08912840       0.80343500
   193  H          0.48370000       0.36070000       0.30550000
   194  H          0.01630000       0.86070000       0.19450000
   195  H          0.51630000       0.63930000       0.69450000
   196  H          0.98370000       0.13930000       0.80550000
   197  C          0.63533110       0.43498150       0.35154500
   198  C          0.86466890       0.93498150       0.14845500
   199  C          0.36466890       0.56501850       0.64845500
   200  C          0.13533110       0.06501850       0.85154500
   201  C          0.73605110       0.50991190       0.34539500
   202  C          0.76394890       0.00991190       0.15460500
   203  C          0.26394890       0.49008810       0.65460500
   204  C          0.23605110      -0.00991190       0.84539500
   205  H          0.79350000       0.52990000       0.37690000
   206  H          0.70650000       0.02990000       0.12310000
   207  H          0.20650000       0.47010000       0.62310000
   208  H          0.29350000       0.97010000       0.87690000
   209  C          0.75228120       0.55521190       0.29311600
   210  C          0.74771880       0.05521190       0.20688400
   211  C          0.24771880       0.44478810       0.70688400
   212  C          0.25228120       0.94478810       0.79311600
   213  H          0.82170000       0.60530000       0.28970000
   214  H          0.67830000       0.10530000       0.21030000
   215  H          0.17830000       0.39470000       0.71030000
   216  H          0.32170000       0.89470000       0.78970000
