data_XACYAE
_symmetry_space_group_name_H-M    'P1'
_symmetry_Int_Tables_number       1
loop_
_symmetry_equiv_pos_site_id
_symmetry_equiv_pos_as_xyz
1 x,y,z
_cell_length_a                   6.94782
_cell_length_b                   8.27992
_cell_length_c                   15.05224
_cell_angle_alpha                94.659413
_cell_angle_beta                 93.240214
_cell_angle_gamma                90.278114
loop_
_atom_site_label
_atom_site_type_symbol
_atom_site_fract_x
_atom_site_fract_y
_atom_site_fract_z
     1  Br         0.47075300       0.28739200       0.06252200
     2  Br         0.52924700       0.71260800       0.93747800
     3  O          0.31782000       0.39257150       0.40614900
     4  O          0.68218000       0.60742850       0.59385100
     5  O          0.34842000       0.16758160       0.46946800
     6  O          0.65158000       0.83241840       0.53053200
     7  O          0.44452000       0.67201840       0.28785100
     8  O          0.55548000       0.32798160       0.71214900
     9  O          0.54092000       0.68243840       0.15404100
    10  O          0.45908000       0.31756160       0.84595900
    11  N          0.35022000       0.24723170       0.40423100
    12  N          0.64978000       0.75276830       0.59576900
    13  N          0.48252000       0.74599840       0.22381100
    14  N          0.51748000       0.25400160       0.77618900
    15  C          0.44882000       0.17193180       0.16468100
    16  C          0.55118000       0.82806820       0.83531900
    17  C          0.40672000       0.25400180       0.24515110
    18  C          0.59328000       0.74599820       0.75484890
    19  C          0.39232000       0.16315180       0.31782100
    20  C          0.60768000       0.83684820       0.68217900
    21  C          0.41613000      -0.00295190       0.31392110
    22  C          0.58387000       0.00295190       0.68607890
    23  C          0.45732000       0.92203820       0.23132110
    24  C          0.54268000       0.07796180       0.76867890
    25  C          0.47642000       0.00531190       0.15654110
    26  C          0.52358000      -0.00531190       0.84345890
    27  H          0.39940000       0.94170000       0.36401500
    28  H          0.60060000       0.05830000       0.63598500
    29  H          0.49840000       0.94370000       0.10201600
    30  H          0.50160000       0.05630000       0.89798400
    31  H          0.39330000       0.37030000       0.25281500
    32  H          0.60670000       0.62970000       0.74718500
    33  N          0.79212000       0.26553160       0.39235900
    34  N          0.20788000       0.73446840       0.60764100
    35  N          0.06712000       0.76858840       0.15080900
    36  N          0.93288000       0.23141160       0.84919100
    37  C          0.86652000       0.14483180       0.33293100
    38  C          0.13348000       0.85516820       0.66706900
    39  C          0.88983000      -0.01487180       0.35672100
    40  C          0.11017000       0.01487180       0.64327900
    41  C          0.95143000       0.86226810       0.29694110
    42  C          0.04857000       0.13773190       0.70305890
    43  C         -0.00828000       0.89057820       0.20924100
    44  C          0.00828000       0.10942180       0.79075900
    45  C          0.96652000       0.04948180       0.18495100
    46  C          0.03348000       0.95051820       0.81504900
    47  C          0.90792000       0.17352180       0.24556100
    48  C          0.09208000       0.82647820       0.75443900
    49  C          0.80883000       0.43273190       0.36990120
    50  C          0.19117000       0.56726810       0.63009880
    51  C          0.81993000       0.24602000       0.48729110
    52  C          0.18007000       0.75398000       0.51270890
    53  C          0.05903000       0.79698000       0.05642120
    54  C          0.94097000       0.20302000       0.94357880
    55  C          0.03293000       0.60098000       0.16814130
    56  C          0.96707000       0.39902000       0.83185870
    57  H          0.90140000       0.57470000       0.16601600
    58  H          0.09860000       0.42530000       0.83398400
    59  H          0.86330000       0.95570000       0.41201500
    60  H          0.13670000       0.04430000       0.58798500
    61  H          0.96330000       0.75470000       0.31781300
    62  H          0.03670000       0.24530000       0.68218700
    63  H          0.10140000       0.52770000       0.12381500
    64  H          0.89860000       0.47230000       0.87618500
    65  H          0.94040000       0.46030000       0.36441400
    66  H          0.05960000       0.53970000       0.63558600
    67  H          0.74740000       0.50430000       0.41231600
    68  H          0.25260000       0.49570000       0.58768400
    69  H          0.75740000       0.32030000       0.51841500
    70  H          0.24260000       0.67970000       0.48158500
    71  H          0.76330000       0.13930000       0.50371400
    72  H          0.23670000       0.86070000       0.49628600
    73  H          0.13930000       0.89470000       0.04991400
    74  H          0.86070000       0.10530000       0.95008600
    75  H          0.10340000       0.71170000       0.01991500
    76  H          0.89660000       0.28830000       0.98008500
    77  H          0.08840000       0.57370000       0.22561500
    78  H          0.91160000       0.42630000       0.77438500
    79  H         -0.00270000       0.08030000       0.12721400
    80  H          0.00270000       0.91970000       0.87278600
    81  H          0.89440000       0.27730000       0.22481500
    82  H          0.10560000       0.72270000       0.77518500
    83  H          0.93340000       0.80570000       0.03261600
    84  H          0.06660000       0.19430000       0.96738400
    85  H          0.95040000       0.24630000       0.50941500
    86  H          0.04960000       0.75370000       0.49058500
    87  H          0.73830000       0.44830000       0.31051500
    88  H          0.26170000       0.55170000       0.68948500
