data_XAFYUC
_symmetry_space_group_name_H-M    'P1'
_symmetry_Int_Tables_number       1
loop_
_symmetry_equiv_pos_site_id
_symmetry_equiv_pos_as_xyz
1 x,y,z
_cell_length_a                   3.74465
_cell_length_b                   9.20661
_cell_length_c                   13.11482
_cell_angle_alpha                96.9943
_cell_angle_beta                 91.5682
_cell_angle_gamma                98.8862
loop_
_atom_site_label
_atom_site_type_symbol
_atom_site_fract_x
_atom_site_fract_y
_atom_site_fract_z
     1  N          0.83923000       0.44354120       0.22000800
     2  N          0.16077000       0.55645880       0.77999200
     3  H          0.67360000       0.34620000       0.20341500
     4  H          0.32640000       0.65380000       0.79658500
     5  C          0.91213000       0.52625150       0.14357100
     6  C          0.08787000       0.47374850       0.85642900
     7  H          0.80888400       0.49176600       0.07636300
     8  H          0.19111600       0.50823400       0.92363700
     9  C          0.13644000       0.66117150       0.16207100
    10  C          0.86356000       0.33882850       0.83792900
    11  H          0.19041100       0.71991500       0.10805600
    12  H          0.80958900       0.28008500       0.89194400
    13  C          0.28203000       0.70962150       0.26110110
    14  C          0.71797000       0.29037850       0.73889890
    15  H          0.43588700       0.80258500       0.27545500
    16  H          0.56411300       0.19741500       0.72454500
    17  C          0.20254000       0.62204150       0.33926100
    18  C          0.79746000       0.37795850       0.66073900
    19  H          0.30099000       0.65416600       0.40724300
    20  H          0.69901000       0.34583400       0.59275700
    21  C         -0.02157000       0.48786150       0.31631100
    22  C          0.02157000       0.51213850       0.68368900
    23  H          0.92196200       0.42643700       0.36871200
    24  H          0.07803800       0.57356300       0.63128800
    25  H          0.23660000       0.11020000       0.26721700
    26  H          0.76340000       0.88980000       0.73278300
    27  O          0.42043000       0.25847100       0.42206700
    28  O          0.57957000       0.74152900       0.57793300
    29  O          0.13153000       0.05633100       0.32247700
    30  O          0.86847000       0.94366900       0.67752300
    31  C          0.23143000       0.13673140       0.41149100
    32  C          0.76857000       0.86326860       0.58850900
    33  C          0.09583000       0.06708150       0.50260100
    34  C          0.90417000       0.93291850       0.49739900
    35  H          0.15042500       0.12250600       0.56862500
    36  H          0.84957500       0.87749400       0.43137500
    37  O          0.38753000       0.19348100       0.17888700
    38  O          0.61247000       0.80651900       0.82111300
    39  C          0.27023000       0.17197140       0.08317100
    40  C          0.72977000       0.82802860       0.91682900
    41  O          0.34583000       0.26348100       0.02299700
    42  O          0.65417000       0.73651900       0.97700300
    43  C          0.03853000       0.02564140       0.04906100
    44  C         -0.03853000       0.97435860       0.95093900
    45  H          0.94278100       0.96721700       0.09986200
    46  H          0.05721900       0.03278300       0.90013800
