data_XAFZAJ
_symmetry_space_group_name_H-M    'P1'
_symmetry_Int_Tables_number       1
loop_
_symmetry_equiv_pos_site_id
_symmetry_equiv_pos_as_xyz
1 x,y,z
_cell_length_a                   3.85046
_cell_length_b                   8.93171
_cell_length_c                   14.6382
_cell_angle_alpha                80.6643
_cell_angle_beta                 82.9133
_cell_angle_gamma                80.1973
loop_
_atom_site_label
_atom_site_type_symbol
_atom_site_fract_x
_atom_site_fract_y
_atom_site_fract_z
     1  O          0.84363000       0.73085130       0.04195800
     2  O          0.15637000       0.26914870       0.95804200
     3  O          0.81364000       0.81024140       0.17878800
     4  O          0.18636000       0.18975860       0.82121200
     5  C          0.87424000       0.82972190       0.09178110
     6  C          0.12576000       0.17027810       0.90821890
     7  C         -0.01516000       0.97854190       0.04544120
     8  C          0.01516000       0.02145810       0.95455880
     9  H          0.03631000       0.04644200       0.08384500
    10  H          0.96369000       0.95355800       0.91615500
    11  O          0.80343000       0.97178130       0.30820800
    12  O          0.19657000       0.02821870       0.69179200
    13  H          0.81860000       0.90630000       0.25971700
    14  H          0.18140000       0.09370000       0.74028300
    15  O          0.52693000       0.78989130       0.39919800
    16  O          0.47307000       0.21010870       0.60080200
    17  C          0.63604000       0.91189190       0.38678110
    18  C          0.36396000       0.08810810       0.61321890
    19  C          0.59114000       0.01549190       0.45907110
    20  C          0.40886000       0.98450810       0.54092890
    21  H          0.69614700       0.10642800       0.44602700
    22  H          0.30385300       0.89357200       0.55397300
    23  N          0.55654000       0.51364160       0.15368900
    24  N          0.44346000       0.48635840       0.84631100
    25  H          0.67060000       0.60330000       0.11251600
    26  H          0.32940000       0.39670000       0.88748400
    27  C          0.41964000       0.53456190       0.24037110
    28  C          0.58036000       0.46543810       0.75962890
    29  H          0.43025000       0.62829400       0.26190000
    30  H          0.56975000       0.37170600       0.73810000
    31  C          0.26284000       0.42139190       0.29890110
    32  C          0.73716000       0.57860810       0.70109890
    33  C          0.25184000       0.28630190       0.26425120
    34  C          0.74816000       0.71369810       0.73574880
    35  H          0.14403300       0.20668700       0.30225300
    36  H          0.85596700       0.79331300       0.69774700
    37  C          0.39724000       0.26704190       0.17452120
    38  C          0.60276000       0.73295810       0.82547880
    39  H          0.39089800       0.17437900       0.15121300
    40  H          0.60910200       0.82562100       0.84878700
    41  C          0.55034000       0.38307190       0.11970120
    42  C          0.44966000       0.61692810       0.88029880
    43  H          0.65115900       0.37116900       0.05823000
    44  H          0.34884100       0.62883100       0.94177000
    45  C          0.11345000       0.44712000       0.39579120
    46  C          0.88655000       0.55288000       0.60420880
    47  H          0.30302900       0.42087400       0.43719700
    48  H          0.69697100       0.57912600       0.56280300
    49  H          0.93039400       0.38207100       0.41780600
    50  H          0.06960600       0.61792900       0.58219400
    51  H          0.00917200       0.55519700       0.39560200
    52  H         -0.00917200       0.44480300       0.60439800
