data_XAHMUS
_symmetry_space_group_name_H-M    'P1'
_symmetry_Int_Tables_number       1
loop_
_symmetry_equiv_pos_site_id
_symmetry_equiv_pos_as_xyz
1 x,y,z
_cell_length_a                   11.22228
_cell_length_b                   11.77848
_cell_length_c                   13.11159
_cell_angle_alpha                92.9592
_cell_angle_beta                 95.5492
_cell_angle_gamma                108.7182
loop_
_atom_site_label
_atom_site_type_symbol
_atom_site_fract_x
_atom_site_fract_y
_atom_site_fract_z
     1  C          0.18337000       0.38876000       0.20935000
     2  C          0.81663000       0.61124000       0.79065000
     3  H          0.09360000       0.34800000       0.21180000
     4  H          0.90640000       0.65200000       0.78820000
     5  H          0.20310000       0.36500000       0.14280000
     6  H          0.79690000       0.63500000       0.85720000
     7  C          0.20669000       0.52308000       0.21637000
     8  C          0.79331000       0.47692000       0.78363000
     9  H          0.19060000       0.54910000       0.28350000
    10  H          0.80940000       0.45090000       0.71650000
    11  H          0.29440000       0.56510000       0.20830000
    12  H          0.70560000       0.43490000       0.79170000
    13  C          0.12261200       0.55389000       0.13519000
    14  C          0.87738800       0.44611000       0.86481000
    15  H          0.03560000       0.51930000       0.14920000
    16  H          0.96440000       0.48070000       0.85080000
    17  H          0.12980000       0.51600000       0.06950000
    18  H          0.87020000       0.48400000       0.93050000
    19  C          0.15051800       0.68951100       0.12511300
    20  C          0.84948200       0.31048900       0.87488700
    21  H          0.09210000       0.70060000       0.07120000
    22  H          0.90790000       0.29940000       0.92880000
    23  H          0.14110000       0.72770000       0.18890000
    24  H          0.85890000       0.27230000       0.81110000
    25  H          0.23550000       0.72450000       0.10900000
    26  H          0.76450000       0.27550000       0.89100000
    27  C          0.39987000       0.40836000       0.29496000
    28  C          0.60013000       0.59164000       0.70504000
    29  H          0.41710000       0.49350000       0.31270000
    30  H          0.58290000       0.50650000       0.68730000
    31  H          0.44280000       0.37860000       0.34980000
    32  H          0.55720000       0.62140000       0.65020000
    33  C          0.45718000       0.39439000       0.19737000
    34  C          0.54282000       0.60561000       0.80263000
    35  H          0.44340000       0.30980000       0.17910000
    36  H          0.55660000       0.69020000       0.82090000
    37  H          0.41660000       0.42480000       0.14130000
    38  H          0.58340000       0.57520000       0.85870000
    39  C          0.59649000       0.46279000       0.21348000
    40  C          0.40351000       0.53721000       0.78652000
    41  H          0.63590000       0.43220000       0.27000000
    42  H          0.36410000       0.56780000       0.73000000
    43  H          0.60920000       0.54690000       0.23210000
    44  H          0.39080000       0.45310000       0.76790000
    45  C          0.66011100       0.45171200       0.11701100
    46  C          0.33988900       0.54828800       0.88298900
    47  H          0.74890000       0.49640000       0.13020000
    48  H          0.25110000       0.50360000       0.86980000
    49  H          0.64890000       0.36850000       0.09910000
    50  H          0.35110000       0.63150000       0.90090000
    51  H          0.62220000       0.48310000       0.06120000
    52  H          0.37780000       0.51690000       0.93880000
    53  C          0.22577000       0.20896000       0.26276000
    54  C          0.77423000       0.79104000       0.73724000
    55  H          0.13430000       0.17180000       0.25270000
    56  H          0.86570000       0.82820000       0.74730000
    57  H          0.25640000       0.19860000       0.19740000
    58  H          0.74360000       0.80140000       0.80260000
    59  C          0.27939000       0.14317000       0.33887000
    60  C          0.72061000       0.85683000       0.66113000
    61  H          0.24730000       0.15120000       0.40400000
    62  H          0.75270000       0.84880000       0.59600000
    63  H          0.37070000       0.17990000       0.34960000
    64  H          0.62930000       0.82010000       0.65040000
    65  C          0.24741000       0.01208000       0.30577000
    66  C          0.75259000      -0.01208000       0.69423000
    67  H          0.15660000       0.97780000       0.28590000
    68  H          0.84340000       0.02220000       0.71410000
    69  H          0.28880000       0.00410000       0.24540000
    70  H          0.71120000      -0.00410000       0.75460000
    71  C          0.28441100       0.94299000       0.38409000
    72  C          0.71558900       0.05701000       0.61591000
    73  H          0.26110000       0.86030000       0.35750000
    74  H          0.73890000       0.13970000       0.64250000
    75  H          0.37440000       0.97470000       0.40280000
    76  H          0.62560000       0.02530000       0.59720000
    77  H          0.24210000       0.94830000       0.44340000
    78  H          0.75790000       0.05170000       0.55660000
    79  C          0.22271600       0.36871400       0.39841100
    80  C          0.77728400       0.63128600       0.60158900
    81  H          0.27200000       0.33820000       0.44810000
    82  H          0.72800000       0.66180000       0.55190000
    83  H          0.24770000       0.45510000       0.41430000
    84  H          0.75230000       0.54490000       0.58570000
    85  C          0.08521500       0.31451400       0.41181000
    86  C          0.91478500       0.68548600       0.58819000
    87  H          0.06070000       0.22740000       0.40470000
    88  H          0.93930000       0.77260000       0.59530000
    89  H          0.03350000       0.33890000       0.35940000
    90  H          0.96650000       0.66110000       0.64060000
    91  C          0.06441800       0.35691200       0.51771000
    92  C          0.93558200       0.64308800       0.48229000
    93  H          0.14050000       0.41970000       0.54910000
    94  H          0.85950000       0.58030000       0.45090000
    95  H         -0.00430000       0.39030000       0.51150000
    96  H          0.00430000       0.60970000       0.48850000
    97  C          0.03411600       0.25861200       0.58151000
    98  C          0.96588400       0.74138800       0.41849000
    99  H          0.02120000       0.28670000       0.64830000
   100  H          0.97880000       0.71330000       0.35170000
   101  H          0.95820000       0.19700000       0.55070000
   102  H          0.04180000       0.80300000       0.44930000
   103  H          0.10270000       0.22640000       0.58830000
   104  H          0.89730000       0.77360000       0.41170000
   105  N          0.25686000       0.34435000       0.29134000
   106  N          0.74314000       0.65565000       0.70866000
   107  C          0.65956000       0.87576000       0.22354000
   108  C          0.34044000       0.12424000       0.77646000
   109  C          0.70226000       0.02456000       0.21004000
   110  C          0.29774000       0.97544000       0.78996000
   111  B          0.80971000      -0.00548900       0.03567000
   112  B          0.19029000       0.00548900       0.96433000
   113  H          0.86090000       0.03310000       0.97140000
   114  H          0.13910000       0.96690000       0.02860000
   115  B          0.76501000       0.83951100       0.04977000
   116  B          0.23499000       0.16048900       0.95023000
   117  H          0.78660000       0.77730000      -0.00540000
   118  H          0.21340000       0.22270000       0.00540000
   119  B          0.88469000       0.94291200       0.13978000
   120  B          0.11531000       0.05708800       0.86022000
   121  H         -0.01510000       0.94910000       0.14410000
   122  H          0.01510000       0.05090000       0.85590000
   123  B          0.64659000       0.90739000       0.01636000
   124  B          0.35341000       0.09261000       0.98364000
   125  H          0.59050000       0.88970000       0.94010000
   126  H          0.40950000       0.11030000       0.05990000
   127  B          0.76988000       0.81841000       0.18217000
   128  B          0.23012000       0.18159000       0.81783000
   129  H          0.79400000       0.74300000       0.21410000
   130  H          0.20600000       0.25700000       0.78590000
   131  B          0.84188000       0.07119000       0.15927000
   132  B          0.15812000       0.92881000       0.84073000
   133  H          0.91310000       0.16100000       0.17670000
   134  H          0.08690000       0.83900000       0.82330000
   135  B          0.69408000       0.04979000       0.08296000
   136  B          0.30592000       0.95021000       0.91704000
   137  H          0.66940000       0.12500000       0.05120000
   138  H          0.33060000       0.87500000       0.94880000
   139  B          0.62298000       0.79668000       0.10646000
   140  B          0.37702000       0.20332000       0.89354000
   141  H          0.55150000       0.70660000       0.08980000
   142  H          0.44850000       0.29340000       0.91020000
   143  B          0.81617000       0.96208000       0.25126000
   144  B          0.18383000       0.03792000       0.74874000
   145  H          0.86820000       0.98000000       0.32900000
   146  H          0.13180000       0.02000000       0.67100000
   147  B          0.57987000       0.92757000       0.12765000
   148  B          0.42013000       0.07243000       0.87235000
   149  H          0.48030000       0.92330000       0.12660000
   150  H          0.51970000       0.07670000       0.87340000
   151  I          0.55511400       0.80204400       0.34626300
   152  I          0.44488600       0.19795600       0.65373700
   153  I          0.66277400       0.14232400       0.32196300
   154  I          0.33722600       0.85767600       0.67803700
   155  Br         0.38076700       0.68134600       0.50928500
   156  Br         0.61923300       0.31865400       0.49071500
