data_XAKCIW
_symmetry_space_group_name_H-M    'P1'
_symmetry_Int_Tables_number       1
loop_
_symmetry_equiv_pos_site_id
_symmetry_equiv_pos_as_xyz
1 x,y,z
_cell_length_a                   12.20001
_cell_length_b                   12.48401
_cell_length_c                   12.59101
_cell_angle_alpha                60.4334
_cell_angle_beta                 62.9085
_cell_angle_gamma                84.4065
loop_
_atom_site_label
_atom_site_type_symbol
_atom_site_fract_x
_atom_site_fract_y
_atom_site_fract_z
     1  Cl         0.25335150       0.01585160       0.93442190
     2  Cl         0.74664850       0.98414840       0.06557810
     3  Cl         0.52116140      -0.00164150       0.64603190
     4  Cl         0.47883860       0.00164150       0.35396810
     5  Cl         0.73684140       0.21988150       0.24719180
     6  Cl         0.26315860       0.78011850       0.75280820
     7  Cl         0.47467140       0.33611160       0.16872180
     8  Cl         0.52532860       0.66388840       0.83127820
     9  Cl         0.77995140       0.54887160       0.97708820
    10  Cl         0.22004860       0.45112840       0.02291180
    11  Cl         0.22135150       0.08505150       0.62342000
    12  Cl         0.77864850       0.91494850       0.37658000
    13  Cl         0.02013140       0.33762170       0.63312000
    14  Cl         0.97986860       0.66237830       0.36688000
    15  Cl         0.46020140       0.15003150       0.01955180
    16  Cl         0.53979860       0.84996850       0.98044820
    17  Cl         0.27210140       0.59856160       0.17008190
    18  Cl         0.72789860       0.40143840       0.82991810
    19  Cl         0.76294140       0.15209150       0.73832190
    20  Cl         0.23705860       0.84790850       0.26167810
    21  Cl         0.02227130       0.63061160       0.65302190
    22  Cl         0.97772870       0.36938840       0.34697810
    23  Cl         0.01256140       0.31962160       0.94070190
    24  Cl         0.98743860       0.68037840       0.05929810
    25  C          0.33856000       0.25747000       0.85667000
    26  C          0.66144000       0.74253000       0.14333000
    27  C          0.33346000       0.17736000       0.79828000
    28  C          0.66654000       0.82264000       0.20172000
    29  C          0.47165000       0.18176000       0.71237000
    30  C          0.52835000       0.81824000       0.28763000
    31  C          0.52145000       0.16566000       0.59028000
    32  C          0.47855000       0.83434000       0.40972000
    33  C          0.65035000       0.24336000       0.48317000
    34  C          0.34965000       0.75664000       0.51683000
    35  C          0.65896000       0.30546000       0.33898000
    36  C          0.34104000       0.69454000       0.66102000
    37  C          0.52236000       0.30016000       0.37508000
    38  C          0.47764000       0.69984000       0.62492000
    39  C          0.47596000       0.39286000       0.27828000
    40  C          0.52404000       0.60714000       0.72172000
    41  C          0.55416000       0.52136000       0.19257000
    42  C          0.44584000       0.47864000       0.80743000
    43  C          0.69086000       0.53996000       0.14597000
    44  C          0.30914000       0.46004000       0.85403000
    45  C          0.72325000       0.43826000       0.25108000
    46  C          0.27675000       0.56174000       0.74892000
    47  C          0.44775000       0.22576000       0.51147000
    48  C          0.55225000       0.77424000       0.48853000
    49  C          0.31006000       0.22517000       0.58108000
    50  C          0.68994000       0.77483000       0.41892000
    51  C          0.27356000       0.23546000       0.70628000
    52  C          0.72644000       0.76454000       0.29372000
    53  C          0.27565000       0.34236000       0.49368000
    54  C          0.72435000       0.65764000       0.50632000
    55  C          0.34965000       0.41876000       0.35727000
    56  C          0.65035000       0.58124000       0.64273000
    57  C          0.20086000       0.32626000       0.70818000
    58  C          0.79914000       0.67374000       0.29182000
    59  C          0.18085000       0.38976000       0.58367000
    60  C          0.81915000       0.61024000       0.41633000
    61  C          0.20625000       0.52886000       0.51648000
    62  C          0.79375000       0.47114000       0.48352000
    63  C          0.54226000       0.22656000       0.74227000
    64  C          0.45774000       0.77344000       0.25773000
    65  C          0.46536000       0.26116000       0.85177000
    66  C          0.53464000       0.73884000       0.14823000
    67  C          0.48446000       0.61056000       0.19547000
    68  C          0.51554000       0.38944000       0.80453000
    69  C          0.34576000       0.55826000       0.28058000
    70  C          0.65424000       0.44174000       0.71942000
    71  C          0.28256000       0.60366000       0.37978000
    72  C          0.71744000       0.39634000       0.62022000
    73  C          0.68226000       0.26726000       0.65258000
    74  C          0.31774000       0.73274000       0.34742000
    75  C          0.71995000       0.28916000       0.50997000
    76  C          0.28005000       0.71084000       0.49003000
    77  C          0.18045000       0.59336000       0.59827000
    78  C          0.81955000       0.40664000       0.40173000
    79  C          0.79656000       0.48326000       0.28168000
    80  C          0.20344000       0.51674000       0.71832000
    81  C          0.17576000       0.37687000       0.80168000
    82  C          0.82424000       0.62313000       0.19832000
    83  C          0.26926000       0.34476000       0.85777000
    84  C          0.73074000       0.65524000       0.14223000
    85  Br         0.16098110       0.10902120       0.36293150
    86  Br         0.83901890       0.89097880       0.63706850
    87  Br         0.07305110       0.11028120       0.23759140
    88  Br         0.92694890       0.88971880       0.76240860
