data_XAKDAS
_symmetry_space_group_name_H-M    'P1'
_symmetry_Int_Tables_number       1
loop_
_symmetry_equiv_pos_site_id
_symmetry_equiv_pos_as_xyz
1 x,y,z
_cell_length_a                   9.77955
_cell_length_b                   10.07004
_cell_length_c                   13.28725
_cell_angle_alpha                102.53601
_cell_angle_beta                 99.7592
_cell_angle_gamma                97.9282
loop_
_atom_site_label
_atom_site_type_symbol
_atom_site_fract_x
_atom_site_fract_y
_atom_site_fract_z
     1  Cl         0.03187400       0.38885400       0.16472300
     2  Cl         0.96812600       0.61114600       0.83527700
     3  P          0.61009400       0.63619400       0.23910300
     4  P          0.38990600       0.36380600       0.76089700
     5  N          0.59157140       0.47156140       0.22619100
     6  N          0.40842860       0.52843860       0.77380900
     7  O          0.60166120       0.71663120       0.34351900
     8  O          0.39833880       0.28336880       0.65648100
     9  O          0.50068120       0.66294120       0.14493900
    10  O          0.49931880       0.33705880       0.85506100
    11  O          0.75342120       0.67089130       0.20129900
    12  O          0.24657880       0.32910870       0.79870100
    13  O          0.49512120       0.31559130       0.48139900
    14  O          0.50487880       0.68440870       0.51860100
    15  O          0.00156130       0.31737140       0.36302100
    16  O         -0.00156130       0.68262860       0.63697900
    17  C          0.57077160       0.40158160       0.31104120
    18  C          0.42922840       0.59841840       0.68895880
    19  H          0.63150000       0.45740000       0.37960000
    20  H          0.36850000       0.54260000       0.62040000
    21  C          0.62588180       0.26682180       0.27448130
    22  C          0.37411820       0.73317820       0.72551870
    23  H          0.72980000       0.28100000       0.29640000
    24  H          0.27020000       0.71900000       0.70360000
    25  H          0.58270000       0.19200000       0.30300000
    26  H          0.41730000       0.80800000       0.69700000
    27  C          0.57962190       0.23370180       0.15426130
    28  C          0.42037810       0.76629820       0.84573870
    29  H          0.63410000       0.16830000       0.11940000
    30  H          0.36590000       0.83170000       0.88060000
    31  H          0.47770000       0.19400000       0.13120000
    32  H          0.52230000       0.80600000       0.86880000
    33  C          0.61220190       0.37483180       0.13076130
    34  C          0.38779810       0.62516820       0.86923870
    35  H          0.71040000       0.39450000       0.12080000
    36  H          0.28960000       0.60550000       0.87920000
    37  H          0.54670000       0.38060000       0.06700000
    38  H          0.45330000       0.61940000       0.93300000
    39  C          0.39608160       0.74371170       0.15904120
    40  C          0.60391840       0.25628830       0.84095880
    41  C          0.25781180       0.67962000       0.11462140
    42  C          0.74218820       0.32038000       0.88537860
    43  H          0.23610000       0.58460000       0.07830000
    44  H          0.76390000       0.41540000       0.92170000
    45  C          0.15115190       0.75712000       0.12420160
    46  C          0.84884810       0.24288000       0.87579840
    47  H          0.05560000       0.71500000       0.09430000
    48  H          0.94440000       0.28500000       0.90570000
    49  C          0.18402000       0.89492000       0.17699160
    50  C          0.81598000       0.10508000       0.82300840
    51  H          0.11070000       0.94700000       0.18430000
    52  H          0.88930000       0.05300000       0.81570000
    53  C          0.32312000       0.95792000       0.21954160
    54  C          0.67688000       0.04208000       0.78045840
    55  H          0.34490000       0.05330000       0.25500000
    56  H          0.65510000       0.94670000       0.74500000
    57  C          0.43108190       0.88175190       0.21047150
    58  C          0.56891810       0.11824810       0.78952850
    59  H          0.52680000       0.92430000       0.23920000
    60  H          0.47320000       0.07570000       0.76080000
    61  C          0.78257160       0.78620170       0.15944130
    62  C          0.21742840       0.21379830       0.84055870
    63  C          0.82365170       0.91767180       0.22546130
    64  C          0.17634830       0.08232820       0.77453870
    65  H          0.82990000       0.93210000       0.29930000
    66  H          0.17010000       0.06790000       0.70070000
    67  C          0.85569170       0.02843180       0.18104140
    68  C          0.14430830       0.97156820       0.81895860
    69  H          0.88350000       0.11970000       0.22490000
    70  H          0.11650000       0.88030000       0.77510000
    71  C          0.84719180       0.00633180       0.07296140
    72  C          0.15280820      -0.00633180       0.92703860
    73  H          0.86870000       0.08230000       0.04320000
    74  H          0.13130000       0.91770000       0.95680000
    75  C          0.80737180       0.87333190       0.00879130
    76  C          0.19262820       0.12666810      -0.00879130
    77  H          0.80310000       0.85820000       0.93510000
    78  H          0.19690000       0.14180000       0.06490000
    79  C          0.77362170       0.76190180       0.05183130
    80  C          0.22637830       0.23809820       0.94816870
    81  H          0.74490000       0.67070000       0.00800000
    82  H          0.25510000       0.32930000      -0.00800000
    83  C          0.41810160       0.37595150       0.32178120
    84  C          0.58189840       0.62404850       0.67821880
    85  C          0.38501160       0.33407160       0.41039120
    86  C          0.61498840       0.66592840       0.58960880
    87  C          0.24700170       0.31325160       0.42449120
    88  C          0.75299830       0.68674840       0.57550880
    89  H          0.22730000       0.28600000       0.48540000
    90  H          0.77270000       0.71400000       0.51460000
    91  C          0.13662160       0.33192160       0.35015120
    92  C          0.86337840       0.66807840       0.64984880
    93  C          0.16848160       0.36912160       0.26045120
    94  C          0.83151840       0.63087840       0.73954880
    95  C          0.30685160       0.39228160       0.24748120
    96  C          0.69314840       0.60771840       0.75251880
    97  H          0.32620000       0.41990000       0.18660000
    98  H          0.67380000       0.58010000       0.81340000
    99  H          0.46830000       0.30220000       0.53321900
   100  H          0.53170000       0.69780000       0.46678100
   101  H         -0.00730000       0.27530000       0.40520000
   102  H          0.00730000       0.72470000       0.59480000
   103  S          0.89277500       0.14072500       0.57249300
   104  S          0.10722500       0.85927500       0.42750700
   105  O          0.97647170       0.15204150       0.48821120
   106  O          0.02352830       0.84795850       0.51178880
   107  C          0.84222000       0.30482000       0.61044170
   108  C          0.15778000       0.69518000       0.38955830
   109  H          0.78710000       0.30350000       0.66540000
   110  H          0.21290000       0.69650000       0.33460000
   111  H          0.92680000       0.37680000       0.63760000
   112  H          0.07320000       0.62320000       0.36240000
   113  H          0.78480000       0.32430000       0.54920000
   114  H          0.21520000       0.67570000       0.45080000
   115  C          0.72262000       0.04512000       0.50554160
   116  C          0.27738000       0.95488000       0.49445840
   117  H          0.66350000       0.03470000       0.55700000
   118  H          0.33650000       0.96530000       0.44300000
   119  H          0.67890000       0.09460000       0.45650000
   120  H          0.32110000       0.90540000       0.54350000
   121  H          0.73180000       0.95360000       0.46630000
   122  H          0.26820000       0.04640000       0.53370000
