data_XAMTOV
_symmetry_space_group_name_H-M    'P1'
_symmetry_Int_Tables_number       1
loop_
_symmetry_equiv_pos_site_id
_symmetry_equiv_pos_as_xyz
1 x,y,z
_cell_length_a                   7.6092
_cell_length_b                   9.4562
_cell_length_c                   11.2062
_cell_angle_alpha                103.773
_cell_angle_beta                 103.213
_cell_angle_gamma                96.483
loop_
_atom_site_label
_atom_site_type_symbol
_atom_site_fract_x
_atom_site_fract_y
_atom_site_fract_z
     1  N          0.83029810       0.66463160       0.43128140
     2  N          0.16970190       0.33536840       0.56871860
     3  C          0.84788000       0.64242000       0.29753160
     4  C          0.15212000       0.35758000       0.70246840
     5  H          0.84150000       0.73470000       0.27460000
     6  H          0.15850000       0.26530000       0.72540000
     7  H          0.96660000       0.61650000       0.29350000
     8  H          0.03340000       0.38350000       0.70650000
     9  C          0.69978000       0.52232000       0.20318180
    10  C          0.30022000       0.47768000       0.79681820
    11  H          0.71510000       0.42780000       0.21970000
    12  H          0.28490000       0.57220000       0.78030000
    13  H          0.71110000       0.51670000       0.11770000
    14  H          0.28890000       0.48330000       0.88230000
    15  C          0.50968000       0.55272000       0.21099190
    16  C          0.49032000       0.44728000       0.78900810
    17  H          0.41700000       0.47240000       0.15150000
    18  H          0.58300000       0.52760000       0.84850000
    19  H          0.49000000       0.64350000       0.18830000
    20  H          0.51000000       0.35650000       0.81170000
    21  C          0.49418000       0.56652000       0.34502000
    22  C          0.50582000       0.43348000       0.65498000
    23  H          0.50600000       0.47320000       0.36520000
    24  H          0.49400000       0.52680000       0.63480000
    25  H          0.37410000       0.58780000       0.35050000
    26  H          0.62590000       0.41220000       0.64950000
    27  C          0.64078000       0.68762190       0.44027180
    28  C          0.35922000       0.31237810       0.55972820
    29  H          0.62170000       0.78220000       0.42500000
    30  H          0.37830000       0.21780000       0.57500000
    31  H          0.63050000       0.69080000       0.52550000
    32  H          0.36950000       0.30920000       0.47450000
    33  C          0.96898000       0.79143180       0.52040180
    34  C          0.03102000       0.20856820       0.47959820
    35  H          0.92760000       0.82690000       0.59610000
    36  H          0.07240000       0.17310000       0.40390000
    37  H         -0.02410000       0.87080000       0.47960000
    38  H          0.02410000       0.12920000       0.52040000
    39  C          0.15922000       0.75544190       0.56023160
    40  C          0.84078000       0.24455810       0.43976840
    41  O          0.27796190       0.86966140       0.62289140
    42  O          0.72203810       0.13033860       0.37710860
    43  O          0.18233170       0.62599130       0.53190120
    44  O          0.81766830       0.37400870       0.46809880
    45  H          0.84580000       0.58620000       0.44981700
    46  H          0.15420000       0.41380000       0.55018300
    47  O          0.44460190       0.16664130       0.23136140
    48  O          0.55539810       0.83335870       0.76863860
    49  C          0.33642000       0.04906170       0.14777170
    50  C          0.66358000       0.95093830       0.85222830
    51  C          0.26042000       0.92444190       0.17924170
    52  C          0.73958000       0.07555810       0.82075830
    53  Cl         0.30974700       0.92540500       0.33885400
    54  Cl         0.69025300       0.07459500       0.66114600
    55  C          0.14802000       0.80347180       0.08952170
    56  C          0.85198000       0.19652820       0.91047830
    57  H          0.10200000       0.72190000       0.11310000
    58  H          0.89800000       0.27810000       0.88690000
    59  C          0.10502000       0.80594180       0.96377830
    60  C          0.89498000       0.19405820       0.03622170
    61  N         -0.01532000       0.67879170       0.86699840
    62  N          0.01532000       0.32120830       0.13300160
    63  O          0.93438810       0.57036150       0.90003860
    64  O          0.06561190       0.42963850       0.09996140
    65  O          0.94038000       0.68493170       0.75639860
    66  O          0.05962000       0.31506830       0.24360140
    67  C          0.17242000       0.92516180       0.92577830
    68  C          0.82758000       0.07483820       0.07422170
    69  H          0.14190000       0.92500000       0.84050000
    70  H          0.85810000       0.07500000       0.15950000
    71  C          0.28522000       0.04411180       0.01761170
    72  C          0.71478000       0.95588820       0.98238830
    73  Cl         0.37149700       0.19356500       0.97101500
    74  Cl         0.62850300       0.80643500       0.02898500
    75  H          0.54950000       0.15940000       0.30230000
    76  H          0.45050000       0.84060000       0.69770000
