data_XAPBAU
_symmetry_space_group_name_H-M    'P1'
_symmetry_Int_Tables_number       1
loop_
_symmetry_equiv_pos_site_id
_symmetry_equiv_pos_as_xyz
1 x,y,z
_cell_length_a                   14.86219
_cell_length_b                   6.82574
_cell_length_c                   14.31348
_cell_angle_alpha                90.0
_cell_angle_beta                 98.2032
_cell_angle_gamma                90.0
loop_
_atom_site_label
_atom_site_type_symbol
_atom_site_fract_x
_atom_site_fract_y
_atom_site_fract_z
     1  Cl         0.14519500       0.35514900       0.30077500
     2  Cl         0.85480500       0.85514900       0.19922500
     3  Cl         0.85480500       0.64485100       0.69922500
     4  Cl         0.14519500       0.14485100       0.80077500
     5  O          0.04241140       0.23484000       0.44889180
     6  O          0.95758860       0.73484000       0.05110820
     7  O          0.95758860       0.76516000       0.55110820
     8  O          0.04241140       0.26516000       0.94889180
     9  N          0.09536150       0.31843000       0.50693170
    10  N          0.90463850       0.81843000      -0.00693170
    11  N          0.90463850       0.68157000       0.49306830
    12  N          0.09536150       0.18157000       0.00693170
    13  O          0.07341160       0.39334000       0.57955180
    14  O          0.92658840       0.89334000       0.92044820
    15  O          0.92658840       0.60666000       0.42044820
    16  O          0.07341160       0.10666000       0.07955180
    17  N          0.41022150       0.36543000       0.65315160
    18  N          0.58977850       0.86543000       0.84684840
    19  N          0.58977850       0.63457000       0.34684840
    20  N          0.41022150       0.13457000       0.15315160
    21  O          0.38193140       0.35633000       0.72894140
    22  O          0.61806860       0.85633000       0.77105860
    23  O          0.61806860       0.64367000       0.27105860
    24  O          0.38193140       0.14367000       0.22894140
    25  O          0.49107130       0.37973000       0.64406140
    26  O          0.50892870       0.87973000       0.85593860
    27  O          0.50892870       0.62027000       0.35593860
    28  O          0.49107130       0.12027000       0.14406140
    29  C          0.21853170       0.35484000       0.40484180
    30  C          0.78146830       0.85484000       0.09515820
    31  C          0.78146830       0.64516000       0.59515820
    32  C          0.21853170       0.14516000       0.90484180
    33  C          0.19083170       0.33884000       0.49357190
    34  C          0.80916830       0.83884000       0.00642810
    35  C          0.80916830       0.66116000       0.50642810
    36  C          0.19083170       0.16116000      -0.00642810
    37  C          0.25289170       0.34354000       0.57540180
    38  C          0.74710830       0.84354000       0.92459820
    39  C          0.74710830       0.65646000       0.42459820
    40  C          0.25289170       0.15646000       0.07540180
    41  H          0.23380000       0.33490000       0.63440000
    42  H          0.76620000       0.83490000       0.86560000
    43  H          0.76620000       0.66510000       0.36560000
    44  H          0.23380000       0.16510000       0.13440000
    45  C          0.34374170       0.36134000       0.56705180
    46  C          0.65625830       0.86134000       0.93294820
    47  C          0.65625830       0.63866000       0.43294820
    48  C          0.34374170       0.13866000       0.06705180
    49  C          0.37416170       0.37684000       0.48009180
    50  C          0.62583830       0.87684000       0.01990820
    51  C          0.62583830       0.62316000       0.51990820
    52  C          0.37416170       0.12316000       0.98009180
    53  H          0.43590000       0.38840000       0.47630000
    54  H          0.56410000       0.88840000       0.02370000
    55  H          0.56410000       0.61160000       0.52370000
    56  H          0.43590000       0.11160000       0.97630000
    57  C          0.31087180       0.37494000       0.39914180
    58  C          0.68912820       0.87494000       0.10085820
    59  C          0.68912820       0.62506000       0.60085820
    60  C          0.31087180       0.12506000       0.89914180
    61  H          0.33020000       0.38700000       0.34040000
    62  H          0.66980000       0.88700000       0.15960000
    63  H          0.66980000       0.61300000       0.65960000
    64  H          0.33020000       0.11300000       0.84040000
    65  N          0.24577180       0.62424000       0.87331180
    66  N          0.75422820       0.12424000       0.62668820
    67  N          0.75422820       0.37576000       0.12668820
    68  N          0.24577180       0.87576000       0.37331180
    69  H          0.27330000       0.58920000       0.80870000
    70  H          0.72670000       0.08920000       0.69130000
    71  H          0.72670000       0.41080000       0.19130000
    72  H          0.27330000       0.91080000       0.30870000
    73  C          0.15539180       0.64634000       0.87964190
    74  C          0.84460820       0.14634000       0.62035810
    75  C          0.84460820       0.35366000       0.12035810
    76  C          0.15539180       0.85366000       0.37964190
    77  C          0.14492150       0.67233000       0.97321160
    78  C          0.85507850       0.17233000       0.52678840
    79  C          0.85507850       0.32767000       0.02678840
    80  C          0.14492150       0.82767000       0.47321160
    81  H          0.08990000       0.69250000      -0.00440000
    82  H          0.91010000       0.19250000       0.50440000
    83  H          0.91010000       0.30750000       0.00440000
    84  H          0.08990000       0.80750000       0.49560000
    85  C          0.22889170       0.66364000       0.02821180
    86  C          0.77110830       0.16364000       0.47178820
    87  C          0.77110830       0.33636000       0.97178820
    88  C          0.22889170       0.83636000       0.52821180
    89  C          0.25245190       0.67604000       0.12626190
    90  C          0.74754810       0.17604000       0.37373810
    91  C          0.74754810       0.32396000       0.87373810
    92  C          0.25245190       0.82396000       0.62626190
    93  H          0.20860000       0.69310000       0.16580000
    94  H          0.79140000       0.19310000       0.33420000
    95  H          0.79140000       0.30690000       0.83420000
    96  H          0.20860000       0.80690000       0.66580000
    97  C          0.34386190       0.66164000       0.16192190
    98  C          0.65613810       0.16164000       0.33807810
    99  C          0.65613810       0.33836000       0.83807810
   100  C          0.34386190       0.83836000       0.66192190
   101  H          0.36170000       0.66930000       0.22680000
   102  H          0.63830000       0.16930000       0.27320000
   103  H          0.63830000       0.33070000       0.77320000
   104  H          0.36170000       0.83070000       0.72680000
   105  C          0.41019180       0.63564000       0.10232000
   106  C          0.58980820       0.13564000       0.39768000
   107  C          0.58980820       0.36436000       0.89768000
   108  C          0.41019180       0.86436000       0.60232000
   109  H          0.47110000       0.62760000       0.12830000
   110  H          0.52890000       0.12760000       0.37170000
   111  H          0.52890000       0.37240000       0.87170000
   112  H          0.47110000       0.87240000       0.62830000
   113  C          0.38658180       0.62174000       0.00562190
   114  C          0.61341820       0.12174000       0.49437810
   115  C          0.61341820       0.37826000      -0.00562190
   116  C          0.38658180       0.87826000       0.50562190
   117  H          0.43100000       0.60410000       0.96680000
   118  H          0.56900000       0.10410000       0.53320000
   119  H          0.56900000       0.39590000       0.03320000
   120  H          0.43100000       0.89590000       0.46680000
   121  C          0.29430170       0.63463000       0.96681180
   122  C          0.70569830       0.13463000       0.53318820
   123  C          0.70569830       0.36537000       0.03318820
   124  C          0.29430170       0.86537000       0.46681180
   125  C          0.07452190       0.64204000       0.80532000
   126  C          0.92547810       0.14204000       0.69468000
   127  C          0.92547810       0.35796000       0.19468000
   128  C          0.07452190       0.85796000       0.30532000
   129  H          0.09340000       0.61240000       0.74540000
   130  H          0.90660000       0.11240000       0.75460000
   131  H          0.90660000       0.38760000       0.25460000
   132  H          0.09340000       0.88760000       0.24540000
   133  H          0.04510000       0.76750000       0.80200000
   134  H          0.95490000       0.26750000       0.69800000
   135  H          0.95490000       0.23250000       0.19800000
   136  H          0.04510000       0.73250000       0.30200000
   137  H          0.03290000       0.54330000       0.82040000
   138  H          0.96710000       0.04330000       0.67960000
   139  H          0.96710000       0.45670000       0.17960000
   140  H          0.03290000       0.95670000       0.32040000
