data_XAPDEB
_symmetry_space_group_name_H-M    'P1'
_symmetry_Int_Tables_number       1
loop_
_symmetry_equiv_pos_site_id
_symmetry_equiv_pos_as_xyz
1 x,y,z
_cell_length_a                   24.53521
_cell_length_b                   6.54652
_cell_length_c                   21.72331
_cell_angle_alpha                90.0
_cell_angle_beta                 100.9064
_cell_angle_gamma                90.0
loop_
_atom_site_label
_atom_site_type_symbol
_atom_site_fract_x
_atom_site_fract_y
_atom_site_fract_z
     1  Cl         0.58053700       0.75873000       0.26914110
     2  Cl         0.41946300       0.25873000       0.23085890
     3  Cl         0.41946300       0.24127000       0.73085890
     4  Cl         0.58053700       0.74127000       0.76914110
     5  Cl         0.58195700       0.31433000       0.26948120
     6  Cl         0.41804300       0.81433000       0.23051880
     7  Cl         0.41804300       0.68567000       0.73051880
     8  Cl         0.58195700       0.18567000       0.76948120
     9  C          0.55123000       0.53529000       0.29413000
    10  C          0.44877000       0.03529000       0.20587000
    11  C          0.44877000       0.46471000       0.70587000
    12  C          0.55123000       0.96471000       0.79413000
    13  H          0.51162100       0.53353700       0.27724300
    14  H          0.48837900       0.03353700       0.22275700
    15  H          0.48837900       0.46646300       0.72275700
    16  H          0.51162100       0.96646300       0.77724300
    17  H          0.55613700       0.53549700       0.33949300
    18  H          0.44386300       0.03549700       0.16050700
    19  H          0.44386300       0.46450300       0.66050700
    20  H          0.55613700       0.96450300       0.83949300
    21  N          0.17224170       0.58536000       0.17362180
    22  N          0.82775830       0.08536000       0.32637820
    23  N          0.82775830       0.41464000       0.82637820
    24  N          0.17224170       0.91464000       0.67362180
    25  N          0.16346160       0.58376000       0.39321180
    26  N          0.83653840       0.08376000       0.10678820
    27  N          0.83653840       0.41624000       0.60678820
    28  N          0.16346160       0.91624000       0.89321180
    29  N          0.27752160       0.54636000       0.42407180
    30  N          0.72247840       0.04636000       0.07592820
    31  N          0.72247840       0.45364000       0.57592820
    32  N          0.27752160       0.95364000       0.92407180
    33  N          0.11089160       0.61226000       0.26600180
    34  N          0.88910840       0.11226000       0.23399820
    35  N          0.88910840       0.38774000       0.73399820
    36  N          0.11089160       0.88774000       0.76600180
    37  N          0.34012160       0.54276000       0.32784190
    38  N          0.65987840       0.04276000       0.17215810
    39  N          0.65987840       0.45724000       0.67215810
    40  N          0.34012160       0.95724000       0.82784190
    41  N          0.28869170       0.55496000       0.20528180
    42  N          0.71130830       0.05496000       0.29471820
    43  N          0.71130830       0.44504000       0.79471820
    44  N          0.28869170       0.94504000       0.70528180
    45  N          0.04432000       0.62779000       0.45672000
    46  N          0.95568000       0.12779000       0.04328000
    47  N          0.95568000       0.37221000       0.54328000
    48  N          0.04432000       0.87221000       0.95672000
    49  N          0.15442000       0.57878000       0.01392000
    50  N          0.84558000       0.07878000       0.48608000
    51  N          0.84558000       0.42122000       0.98608000
    52  N          0.15442000       0.92122000       0.51392000
    53  C          0.16639190       0.58976000       0.28312000
    54  C          0.83360810       0.08976000       0.21688000
    55  C          0.83360810       0.41024000       0.71688000
    56  C          0.16639190       0.91024000       0.78312000
    57  C          0.19893190       0.57936000       0.23422000
    58  C          0.80106810       0.07936000       0.26578000
    59  C          0.80106810       0.42064000       0.76578000
    60  C          0.19893190       0.92064000       0.73422000
    61  C          0.19268190       0.57816000       0.34682000
    62  C          0.80731810       0.07816000       0.15318000
    63  C          0.80731810       0.42184000       0.65318000
    64  C          0.19268190       0.92184000       0.84682000
    65  C          0.28464190       0.55576000       0.31502000
    66  C          0.71535810       0.05576000       0.18498000
    67  C          0.71535810       0.44424000       0.68498000
    68  C          0.28464190       0.94424000       0.81502000
    69  C          0.25685190       0.56347000       0.24912000
    70  C          0.74314810       0.06347000       0.25088000
    71  C          0.74314810       0.43653000       0.75088000
    72  C          0.25685190       0.93653000       0.74912000
    73  C          0.25307180       0.55986000       0.36322000
    74  C          0.74692820       0.05986000       0.13678000
    75  C          0.74692820       0.44014000       0.63678000
    76  C          0.25307180       0.94014000       0.86322000
    77  C          0.20332000       0.57557000       0.13052000
    78  C          0.79668000       0.07557000       0.36948000
    79  C          0.79668000       0.42443000       0.86948000
    80  C          0.20332000       0.92443000       0.63052000
    81  C          0.08312000       0.62198000       0.31192000
    82  C          0.91688000       0.12198000       0.18808000
    83  C          0.91688000       0.37802000       0.68808000
    84  C          0.08312000       0.87802000       0.81192000
    85  C          0.10912000       0.60717000       0.37632000
    86  C          0.89088000       0.10717000       0.12368000
    87  C          0.89088000       0.39283000       0.62368000
    88  C          0.10912000       0.89283000       0.87632000
    89  C          0.17552000       0.57897000       0.06532000
    90  C          0.82448000       0.07897000       0.43468000
    91  C          0.82448000       0.42103000       0.93468000
    92  C          0.17552000       0.92103000       0.56532000
    93  C          0.36412000       0.53037000       0.38782000
    94  C          0.63588000       0.03037000       0.11218000
    95  C          0.63588000       0.46963000       0.61218000
    96  C          0.36412000       0.96963000       0.88782000
    97  C          0.33202000       0.53067000       0.43602000
    98  C          0.66798000       0.03067000       0.06398000
    99  C          0.66798000       0.46933000       0.56398000
   100  C          0.33202000       0.96933000       0.93602000
   101  N          0.37892000       0.47989000       0.55182000
   102  N          0.62108000      -0.02011000       0.94818000
   103  N          0.62108000       0.52011000       0.44818000
   104  N          0.37892000       0.02011000       0.05182000
   105  C          0.07472000       0.61779000       0.42292000
   106  C          0.92528000       0.11779000       0.07708000
   107  C          0.92528000       0.38221000       0.57708000
   108  C          0.07472000       0.88221000       0.92292000
   109  C          0.26192000       0.56227000       0.14622000
   110  C          0.73808000       0.06227000       0.35378000
   111  C          0.73808000       0.43773000       0.85378000
   112  C          0.26192000       0.93773000       0.64622000
   113  C          0.35842000       0.50578000       0.50092000
   114  C          0.64158000       0.00578000      -0.00092000
   115  C          0.64158000       0.49422000       0.49908000
   116  C          0.35842000      -0.00578000       0.00092000
   117  N          0.32002000       0.54589000       0.05872000
   118  N          0.67998000       0.04589000       0.44128000
   119  N          0.67998000       0.45411000       0.94128000
   120  N          0.32002000       0.95411000       0.55872000
   121  N          0.97668000       0.67471200       0.28593000
   122  N          0.02332000       0.17471200       0.21407000
   123  N          0.02332000       0.32528800       0.71407000
   124  N          0.97668000       0.82528800       0.78593000
   125  C          0.29502000       0.55248000       0.09772000
   126  C          0.70498000       0.05248000       0.40228000
   127  C          0.70498000       0.44752000       0.90228000
   128  C          0.29502000       0.94752000       0.59772000
   129  C          0.02322000       0.65001000       0.29552000
   130  C          0.97678000       0.15001000       0.20448000
   131  C          0.97678000       0.34999000       0.70448000
   132  C          0.02322000       0.84999000       0.79552000
   133  C          0.42362000       0.51261000       0.40153000
   134  C          0.57638000       0.01261000       0.09847000
   135  C          0.57638000       0.48739000       0.59847000
   136  C          0.42362000      -0.01261000       0.90153000
   137  N          0.47102000       0.49521100       0.41123000
   138  N          0.52898000      -0.00478900       0.08877000
   139  N          0.52898000       0.50478900       0.58877000
   140  N          0.47102000       0.00478900       0.91123000
   141  C          0.20972000       0.07727000       0.29962000
   142  C          0.79028000       0.57727000       0.20038000
   143  C          0.79028000       0.92273000       0.70038000
   144  C          0.20972000       0.42273000       0.79962000
   145  C          0.26682000       0.06047000       0.29252000
   146  C          0.73318000       0.56047000       0.20748000
   147  C          0.73318000       0.93953000       0.70748000
   148  C          0.26682000       0.43953000       0.79252000
   149  C          0.16772000       0.08777000       0.24693000
   150  C          0.83228000       0.58777000       0.25307000
   151  C          0.83228000       0.91223000       0.75307000
   152  C          0.16772000       0.41223000       0.74693000
   153  H          0.13100900       0.09718400       0.25191200
   154  H          0.86899100       0.59718400       0.24808800
   155  H          0.86899100       0.90281600       0.74808800
   156  H          0.13100900       0.40281600       0.75191200
   157  C          0.23672000       0.06907000       0.17942000
   158  C          0.76328000       0.56907000       0.32058000
   159  C          0.76328000       0.93093000       0.82058000
   160  C          0.23672000       0.43093000       0.67942000
   161  C          0.17962000       0.08447000       0.18673000
   162  C          0.82038000       0.58447000       0.31327000
   163  C          0.82038000       0.91553000       0.81327000
   164  C          0.17962000       0.41553000       0.68673000
   165  C          0.27852000       0.05777000       0.23222000
   166  C          0.72148000       0.55777000       0.26778000
   167  C          0.72148000       0.94223000       0.76778000
   168  C          0.27852000       0.44223000       0.73222000
   169  H          0.31525000       0.04819800       0.22727600
   170  H          0.68475000       0.54819800       0.27272400
   171  H          0.68475000       0.95180200       0.77272400
   172  H          0.31525000       0.45180200       0.72727600
   173  C          0.19852000       0.07667000       0.36223000
   174  C          0.80148000       0.57667000       0.13777000
   175  C          0.80148000       0.92333000       0.63777000
   176  C          0.19852000       0.42333000       0.86223000
   177  H          0.16212600       0.08620800       0.36825600
   178  H          0.83787400       0.58620800       0.13174400
   179  H          0.83787400       0.91379200       0.63174400
   180  H          0.16212600       0.41379200       0.86825600
   181  C          0.30922000       0.04647000       0.34742000
   182  C          0.69078000       0.54647000       0.15258000
   183  C          0.69078000       0.95353000       0.65258000
   184  C          0.30922000       0.45353000       0.84742000
   185  H          0.34618400       0.03669600       0.34326300
   186  H          0.65381600       0.53669600       0.15673700
   187  H          0.65381600       0.96330400       0.65673700
   188  H          0.34618400       0.46330400       0.84326300
   189  C          0.24093000       0.06218000       0.41272000
   190  C          0.75907000       0.56218000       0.08728000
   191  C          0.75907000       0.93782000       0.58728000
   192  C          0.24093000       0.43782000       0.91272000
   193  H          0.23274100       0.06225700       0.45282000
   194  H          0.76725900       0.56225700       0.04718000
   195  H          0.76725900       0.93774300       0.54718000
   196  H          0.23274100       0.43774300       0.95282000
   197  C          0.29643000       0.04718000       0.40553000
   198  C          0.70357000       0.54718000       0.09447000
   199  C          0.70357000       0.95282000       0.59447000
   200  C          0.29643000       0.45282000       0.90553000
   201  H          0.32451900       0.03750000       0.44074900
   202  H          0.67548100       0.53750000       0.05925100
   203  H          0.67548100       0.96250000       0.55925100
   204  H          0.32451900       0.46250000       0.94074900
   205  C          0.13723000       0.09488000       0.13183000
   206  C          0.86277000       0.59488000       0.36817000
   207  C          0.86277000       0.90512000       0.86817000
   208  C          0.13723000       0.40512000       0.63183000
   209  H          0.10023500       0.10532000       0.13591300
   210  H          0.89976500       0.60532000       0.36408700
   211  H          0.89976500       0.89468000       0.86408700
   212  H          0.10023500       0.39468000       0.63591300
   213  C          0.20563000       0.07359000       0.06663000
   214  C          0.79437000       0.57359000       0.43337000
   215  C          0.79437000       0.92641000       0.93337000
   216  C          0.20563000       0.42641000       0.56663000
   217  H          0.21363200       0.06899300       0.02649400
   218  H          0.78636800       0.56899300       0.47350600
   219  H          0.78636800       0.93100700       0.97350600
   220  H          0.21363200       0.43100700       0.52649400
   221  C          0.24773000       0.06438000       0.11723000
   222  C          0.75227000       0.56438000       0.38277000
   223  C          0.75227000       0.93562000       0.88277000
   224  C          0.24773000       0.43562000       0.61723000
   225  H          0.28412600       0.05488800       0.11117100
   226  H          0.71587400       0.55488800       0.38882900
   227  H          0.71587400       0.94511200       0.88882900
   228  H          0.28412600       0.44511200       0.61117100
   229  C          0.14983000       0.08979000       0.07403000
   230  C          0.85017000       0.58979000       0.42597000
   231  C          0.85017000       0.91021000       0.92597000
   232  C          0.14983000       0.41021000       0.57403000
   233  H          0.12155400       0.09691100       0.03886400
   234  H          0.87844600       0.59691100       0.46113600
   235  H          0.87844600       0.90308900       0.96113600
   236  H          0.12155400       0.40308900       0.53886400
   237  C          0.01863000       0.12571000       0.38373000
   238  C          0.98137000       0.62571000       0.11627000
   239  C          0.98137000       0.87429000       0.61627000
   240  C          0.01863000       0.37429000       0.88373000
   241  N          0.05963000       0.14391200       0.36853000
   242  N          0.94037000       0.64391200       0.13147000
   243  N          0.94037000       0.85608800       0.63147000
   244  N          0.05963000       0.35608800       0.86853000
   245  C          0.96557000       0.09951400       0.40294000
   246  C          0.03443000       0.59951400       0.09706000
   247  C          0.03443000       0.90048600       0.59706000
   248  C          0.96557000       0.40048600       0.90294000
   249  H          0.93614900       0.12499400       0.36786800
   250  H          0.06385100       0.62499400       0.13213200
   251  H          0.06385100       0.87500600       0.63213200
   252  H          0.93614900       0.37500600       0.86786800
   253  H          0.96285400       0.19380700       0.43603000
   254  H          0.03714600       0.69380700       0.06397000
   255  H          0.03714600       0.80619300       0.56397000
   256  H          0.96285400       0.30619300       0.93603000
   257  H          0.96268700       0.96228900       0.41755500
   258  H          0.03731300       0.46228900       0.08244500
   259  H          0.03731300       0.03771100       0.58244500
   260  H          0.96268700       0.53771100       0.91755500
   261  C          0.45994000      -0.01348500       0.58504000
   262  C          0.54006000       0.48651500       0.91496000
   263  C          0.54006000       0.01348500       0.41496000
   264  C          0.45994000       0.51348500       0.08504000
   265  H          0.49975300      -0.01504200       0.59318100
   266  H          0.50024700       0.48495800       0.90681900
   267  H          0.50024700       0.01504200       0.40681900
   268  H          0.49975300       0.51504200       0.09318100
   269  H          0.44644200       0.87024400       0.60452700
   270  H          0.55355800       0.37024400       0.89547300
   271  H          0.55355800       0.12975600       0.39547300
   272  H          0.44644200       0.62975600       0.10452700
   273  H          0.44709700       0.10949000       0.60165300
   274  H          0.55290300       0.60949000       0.89834700
   275  H          0.55290300       0.89051000       0.39834700
   276  H          0.44709700       0.39051000       0.10165300
   277  N          0.42735000       0.96820000       0.45397000
   278  N          0.57265000       0.46820000       0.04603000
   279  N          0.57265000       0.03180000       0.54603000
   280  N          0.42735000       0.53180000       0.95397000
   281  C          0.43805000       0.97820000       0.51337000
   282  C          0.56195000       0.47820000       0.98663000
   283  C          0.56195000       0.02180000       0.48663000
   284  C          0.43805000       0.52180000       0.01337000
