data_XAPMIK
_symmetry_space_group_name_H-M    'P1'
_symmetry_Int_Tables_number       1
loop_
_symmetry_equiv_pos_site_id
_symmetry_equiv_pos_as_xyz
1 x,y,z
_cell_length_a                   3.855101
_cell_length_b                   10.63812
_cell_length_c                   14.70232
_cell_angle_alpha                90.0
_cell_angle_beta                 95.59101
_cell_angle_gamma                90.0
loop_
_atom_site_label
_atom_site_type_symbol
_atom_site_fract_x
_atom_site_fract_y
_atom_site_fract_z
     1  N          0.09263000       0.62777110       0.49999800
     2  N          0.40737000       0.12777110       0.00000200
     3  N          0.90737000       0.37222890       0.50000200
     4  N          0.59263000       0.87222890      -0.00000200
     5  C          0.49104000       0.53142000       0.72221110
     6  C          0.00896000       0.03142000       0.77778890
     7  C          0.50896000       0.46858000       0.27778890
     8  C         -0.00896000       0.96858000       0.22221110
     9  H          0.62534000       0.56702000       0.77436110
    10  H          0.87466000       0.06702000       0.72563890
    11  H          0.37466000       0.43298000       0.22563890
    12  H          0.12534000       0.93298000       0.27436110
    13  C          0.39224000       0.60527150       0.64962100
    14  C          0.10776000       0.10527150       0.85037900
    15  C          0.60776000       0.39472850       0.35037900
    16  C          0.89224000       0.89472850       0.14962100
    17  H          0.45704000       0.69242150       0.65059100
    18  H          0.04296000       0.19242150       0.84940900
    19  H          0.54296000       0.30757850       0.34940900
    20  H          0.95704000       0.80757850       0.15059100
    21  C          0.19223000       0.55461130       0.57187100
    22  C          0.30777000       0.05461130       0.92812900
    23  C          0.80777000       0.44538870       0.42812900
    24  C          0.69223000       0.94538870       0.07187100
    25  C          0.90237000       0.57617130       0.42784100
    26  C          0.59763000       0.07617130       0.07215900
    27  C          0.09763000       0.42382870       0.57215900
    28  C          0.40237000       0.92382870       0.92784100
    29  C          0.78986000       0.65028150       0.35059110
    30  C          0.71014000       0.15028150       0.14940890
    31  C          0.21014000       0.34971850       0.64940890
    32  C          0.28986000       0.84971850       0.85059110
    33  H          0.84756000       0.73805150       0.35016110
    34  H          0.65244000       0.23805150       0.14983890
    35  H          0.15244000       0.26194850       0.64983890
    36  H          0.34756000       0.76194850       0.85016110
    37  C          0.39914000       0.40182000       0.72221110
    38  C          0.10086000       0.90182000       0.77778890
    39  C          0.60086000       0.59818000       0.27778890
    40  C          0.89914000       0.09818000       0.22221110
    41  H          0.47114000       0.35112000       0.77471110
    42  H          0.02886000       0.85112000       0.72528890
    43  H          0.52886000       0.64888000       0.22528890
    44  H         -0.02886000       0.14888000       0.27471110
    45  C          0.46544000       0.93464140       0.51888110
    46  C          0.03456000       0.43464140       0.98111890
    47  C          0.53456000       0.06535860       0.48111890
    48  C         -0.03456000       0.56535860       0.01888110
    49  O          0.26083000       0.86898110       0.46155800
    50  O          0.23917000       0.36898110       0.03844200
    51  O          0.73917000       0.13101890       0.53844200
    52  O          0.76083000       0.63101890       0.96155800
    53  H          0.21523000       0.78397110       0.48081800
    54  H          0.28477000       0.28397110       0.01918200
    55  H          0.78477000       0.21602890       0.51918200
    56  H          0.71523000       0.71602890       0.98081800
    57  O          0.58684000       0.90031130       0.59215100
    58  O          0.91316000       0.40031130       0.90784900
    59  O          0.41316000       0.09968870       0.40784900
    60  O          0.08684000       0.59968870       0.09215100
