data_XAPWIU
_symmetry_space_group_name_H-M    'P1'
_symmetry_Int_Tables_number       1
loop_
_symmetry_equiv_pos_site_id
_symmetry_equiv_pos_as_xyz
1 x,y,z
_cell_length_a                   16.2513
_cell_length_b                   6.6762
_cell_length_c                   24.0596
_cell_angle_alpha                90.0
_cell_angle_beta                 100.142
_cell_angle_gamma                90.0
loop_
_atom_site_label
_atom_site_type_symbol
_atom_site_fract_x
_atom_site_fract_y
_atom_site_fract_z
     1  N          0.63655000       0.40611400       0.57514000
     2  N          0.86345000       0.90611400       0.92486000
     3  N          0.36345000       0.59388600       0.42486000
     4  N          0.13655000       0.09388600       0.07514000
     5  C          0.72117000       0.41451600       0.59565000
     6  C          0.77883000       0.91451600       0.90435000
     7  C          0.27883000       0.58548400       0.40435000
     8  C          0.22117000       0.08548400       0.09565000
     9  C          0.77907000       0.41021600       0.56084000
    10  C          0.72093000       0.91021600       0.93916000
    11  C          0.22093000       0.58978400       0.43916000
    12  C          0.27907000       0.08978400       0.06084000
    13  C          0.75376000       0.39101500       0.50294000
    14  C          0.74624000       0.89101500      -0.00294000
    15  C          0.24624000       0.60898500       0.49706000
    16  C          0.25376000       0.10898500       0.00294000
    17  C          0.66636000       0.38031700       0.48175000
    18  C          0.83364000       0.88031700       0.01825000
    19  C          0.33364000       0.61968300       0.51825000
    20  C          0.16636000       0.11968300       0.98175000
    21  C          0.61527000       0.38871900       0.52125000
    22  C          0.88473000       0.88871900       0.97875000
    23  C          0.38473000       0.61128100       0.47875000
    24  C          0.11527000       0.11128100       0.02125000
    25  N          0.93385000       0.39141400       0.39214000
    26  N          0.56615000       0.89141400       0.10786000
    27  N          0.06615000       0.60858600       0.60786000
    28  N          0.43385000       0.10858600       0.89214000
    29  C          0.95316000       0.34001700       0.44574000
    30  C          0.54684000       0.84001700       0.05426000
    31  C          0.04684000       0.65998300       0.55426000
    32  C          0.45316000       0.15998300       0.94574000
    33  C          0.89786000       0.33501600       0.48305000
    34  C          0.60214000       0.83501600       0.01695000
    35  C          0.10214000       0.66498400       0.51695000
    36  C          0.39786000       0.16498400       0.98305000
    37  C          0.81416000       0.39141600       0.46344000
    38  C          0.68584000       0.89141600       0.03656000
    39  C          0.18584000       0.60858400       0.53656000
    40  C          0.31416000       0.10858400       0.96344000
    41  C          0.79416000       0.44311600       0.40784000
    42  C          0.70584000       0.94311600       0.09216000
    43  C          0.20584000       0.55688400       0.59216000
    44  C          0.29416000       0.05688400       0.90784000
    45  C          0.85347000       0.44241700       0.37325000
    46  C          0.64653000       0.94241700       0.12675000
    47  C          0.14653000       0.55758300       0.62675000
    48  C          0.35347000       0.05758300       0.87325000
    49  H          0.73940000       0.42350000       0.63430000
    50  H          0.76060000       0.92350000       0.86570000
    51  H          0.26060000       0.57650000       0.36570000
    52  H          0.23940000       0.07650000       0.13430000
    53  H          0.83550000       0.42020000       0.57600000
    54  H          0.66450000       0.92020000       0.92400000
    55  H          0.16450000       0.57980000       0.42400000
    56  H          0.33550000       0.07980000       0.07600000
    57  H          0.64510000       0.36840000       0.44330000
    58  H          0.85490000       0.86840000       0.05670000
    59  H          0.35490000       0.63160000       0.55670000
    60  H          0.14510000       0.13160000       0.94330000
    61  H          0.55810000       0.38090000       0.50740000
    62  H          0.94190000       0.88090000       0.99260000
    63  H          0.44190000       0.61910000       0.49260000
    64  H          0.05810000       0.11910000       0.00740000
    65  H          0.00820000       0.30430000       0.45940000
    66  H          0.49180000       0.80430000       0.04060000
    67  H         -0.00820000       0.69570000       0.54060000
    68  H          0.50820000       0.19570000       0.95940000
    69  H          0.91530000       0.29520000       0.52020000
    70  H          0.58470000       0.79520000       0.97980000
    71  H          0.08470000       0.70480000       0.47980000
    72  H          0.41530000       0.20480000       0.02020000
    73  H          0.73950000       0.47950000       0.39290000
    74  H          0.76050000      -0.02050000       0.10710000
    75  H          0.26050000       0.52050000       0.60710000
    76  H          0.23950000       0.02050000       0.89290000
    77  H          0.83740000       0.47830000       0.33550000
    78  H          0.66260000       0.97830000       0.16450000
    79  H          0.16260000       0.52170000       0.66450000
    80  H          0.33740000       0.02170000       0.83550000
    81  C          0.39626000       0.53171800       0.79124000
    82  C          0.10374000       0.03171800       0.70876000
    83  C          0.60374000       0.46828200       0.20876000
    84  C          0.89626000       0.96828200       0.29124000
    85  C          0.40866000       0.56631600       0.84914000
    86  C          0.09134000       0.06631600       0.65086000
    87  C          0.59134000       0.43368400       0.15086000
    88  C          0.90866000       0.93368400       0.34914000
    89  Cl         0.51022000       0.59165000       0.88421000
    90  Cl         0.98978000       0.09165000       0.61579000
    91  Cl         0.48978000       0.40835000       0.11579000
    92  Cl         0.01022000       0.90835000       0.38421000
    93  C          0.34346000       0.57811700       0.87854000
    94  C          0.15654000       0.07811700       0.62146000
    95  C          0.65654000       0.42188300       0.12146000
    96  C          0.84346000       0.92188300       0.37854000
    97  C          0.26326000       0.55451700       0.84954000
    98  C          0.23674000       0.05451700       0.65046000
    99  C          0.73674000       0.44548300       0.15046000
   100  C          0.76326000       0.94548300       0.34954000
   101  Cl         0.17992000       0.56785000       0.88601000
   102  Cl         0.32008000       0.06785000       0.61399000
   103  Cl         0.82008000       0.43215000       0.11399000
   104  Cl         0.67992000       0.93215000       0.38601000
   105  C          0.24787000       0.51802000       0.79385000
   106  C          0.25213000       0.01802000       0.70615000
   107  C          0.75213000       0.48198000       0.20615000
   108  C          0.74787000      -0.01802000       0.29385000
   109  C          0.31196000       0.51102000       0.76245000
   110  C          0.18804000       0.01102000       0.73755000
   111  C          0.68804000       0.48898000       0.23755000
   112  C          0.81196000      -0.01102000       0.26245000
   113  O          0.46474000       0.51881300       0.76653000
   114  O          0.03526000       0.01881300       0.73347000
   115  O          0.53526000       0.48118700       0.23347000
   116  O          0.96474000      -0.01881300       0.26653000
   117  C          0.45147000       0.49581800       0.70774000
   118  C          0.04853000      -0.00418200       0.79226000
   119  C          0.54853000       0.50418200       0.29226000
   120  C          0.95147000       0.00418200       0.20774000
   121  C          0.53057000       0.47171700       0.68715000
   122  C          0.96943000       0.97171700       0.81285000
   123  C          0.46943000       0.52828300       0.31285000
   124  C          0.03057000       0.02828300       0.18715000
   125  O          0.60014000       0.45831300       0.71583000
   126  O          0.89986000       0.95831300       0.78417000
   127  O          0.39986000       0.54168700       0.28417000
   128  O          0.10014000       0.04168700       0.21583000
   129  O          0.51665000       0.45801300       0.63133000
   130  O          0.98335000       0.95801300       0.86867000
   131  O          0.48335000       0.54198700       0.36867000
   132  O          0.01665000       0.04198700       0.13133000
   133  H          0.35340000       0.60170000       0.91720000
   134  H          0.14660000       0.10170000       0.58280000
   135  H          0.64660000       0.39830000       0.08280000
   136  H          0.85340000       0.89830000       0.41720000
   137  H          0.19300000       0.49630000       0.77580000
   138  H          0.30700000      -0.00370000       0.72420000
   139  H          0.80700000       0.50370000       0.22420000
   140  H          0.69300000       0.00370000       0.27580000
   141  H          0.30020000       0.49350000       0.72340000
   142  H          0.19980000      -0.00650000       0.77660000
   143  H          0.69980000       0.50650000       0.27660000
   144  H          0.80020000       0.00650000       0.22340000
   145  H          0.42210000       0.61230000       0.69010000
   146  H          0.07790000       0.11230000       0.80990000
   147  H          0.57790000       0.38770000       0.30990000
   148  H          0.92210000       0.88770000       0.19010000
   149  H          0.41650000       0.37930000       0.69720000
   150  H          0.08350000       0.87930000       0.80280000
   151  H          0.58350000       0.62070000       0.30280000
   152  H          0.91650000       0.12070000       0.19720000
   153  H          0.58601100       0.43003000       0.61807000
   154  H          0.91398900       0.93003000       0.88193000
   155  H          0.41398900       0.56997000       0.38193000
   156  H          0.08601100       0.06997000       0.11807000
   157  C          0.13756000       0.56321600       0.16114000
   158  C          0.36244000       0.06321600       0.33886000
   159  C          0.86244000       0.43678400       0.83886000
   160  C          0.63756000       0.93678400       0.66114000
   161  C          0.11145000       0.57021600       0.10344000
   162  C          0.38855000       0.07021600       0.39656000
   163  C          0.88855000       0.42978400       0.89656000
   164  C          0.61145000       0.92978400       0.60344000
   165  Cl         0.00422000       0.55665000       0.07771000
   166  Cl         0.49578000       0.05665000       0.42229000
   167  Cl        -0.00422000       0.44335000       0.92229000
   168  Cl         0.50422000       0.94335000       0.57771000
   169  C          0.16476000       0.58661700       0.06414000
   170  C          0.33524000       0.08661700       0.43586000
   171  C          0.83524000       0.41338300       0.93586000
   172  C          0.66476000       0.91338300       0.56414000
   173  C          0.25086000       0.59211700       0.08664000
   174  C          0.24914000       0.09211700       0.41336000
   175  C          0.74914000       0.40788300       0.91336000
   176  C          0.75086000       0.90788300       0.58664000
   177  Cl         0.31772000       0.60954000       0.03801000
   178  Cl         0.18228000       0.10954000       0.46199000
   179  Cl         0.68228000       0.39046000       0.96199000
   180  Cl         0.81772000       0.89046000       0.53801000
   181  C          0.27976000       0.58361500       0.14394000
   182  C          0.22024000       0.08361500       0.35606000
   183  C          0.72024000       0.41638500       0.85606000
   184  C          0.77976000       0.91638500       0.64394000
   185  C          0.22466000       0.56951700       0.18165000
   186  C          0.27534000       0.06951700       0.31835000
   187  C          0.77534000       0.43048300       0.81835000
   188  C          0.72466000       0.93048300       0.68165000
   189  O          0.07834000       0.54641100       0.19413000
   190  O          0.42166000       0.04641100       0.30587000
   191  O          0.92166000       0.45358900       0.80587000
   192  O          0.57834000       0.95358900       0.69413000
   193  C          0.10586000       0.52651800       0.25274000
   194  C          0.39414000       0.02651800       0.24726000
   195  C          0.89414000       0.47348200       0.74726000
   196  C          0.60586000       0.97348200       0.75274000
   197  C          0.03277000       0.48281700       0.28145000
   198  C          0.46723000      -0.01718300       0.21855000
   199  C          0.96723000       0.51718300       0.71855000
   200  C          0.53277000       0.01718300       0.78145000
   201  O          0.95926000       0.48831200       0.25663000
   202  O          0.54074000      -0.01168800       0.24337000
   203  O          0.04074000       0.51168800       0.74337000
   204  O          0.45926000       0.01168800       0.75663000
   205  O          0.05604000       0.43781200       0.33413000
   206  O          0.44396000       0.93781200       0.16587000
   207  O          0.94396000       0.56218800       0.66587000
   208  O          0.55604000       0.06218800       0.83413000
   209  H          0.14470000       0.59350000       0.02550000
   210  H          0.35530000       0.09350000       0.47450000
   211  H          0.85530000       0.40650000       0.97450000
   212  H          0.64470000       0.90650000       0.52550000
   213  H          0.33690000       0.58750000       0.15750000
   214  H          0.16310000       0.08750000       0.34250000
   215  H          0.66310000       0.41250000       0.84250000
   216  H          0.83690000       0.91250000       0.65750000
   217  H          0.24470000       0.56420000       0.22020000
   218  H          0.25530000       0.06420000       0.27980000
   219  H          0.75530000       0.43580000       0.77980000
   220  H          0.74470000       0.93580000       0.72020000
   221  H          0.13290000       0.64930000       0.26780000
   222  H          0.36710000       0.14930000       0.23220000
   223  H          0.86710000       0.35070000       0.73220000
   224  H          0.63290000       0.85070000       0.76780000
   225  H          0.14620000       0.41860000       0.26010000
   226  H          0.35380000       0.91860000       0.23990000
   227  H          0.85380000       0.58140000       0.73990000
   228  H          0.64620000       0.08140000       0.76010000
   229  H          0.00109000       0.41002000       0.35106000
   230  H          0.49891000       0.91002000       0.14894000
   231  H         -0.00109000       0.58998000       0.64894000
   232  H          0.50109000       0.08998000       0.85106000
