data_XAQGED
_symmetry_space_group_name_H-M    'P1'
_symmetry_Int_Tables_number       1
loop_
_symmetry_equiv_pos_site_id
_symmetry_equiv_pos_as_xyz
1 x,y,z
_cell_length_a                   9.7781
_cell_length_b                   13.7781
_cell_length_c                   14.2691
_cell_angle_alpha                63.081
_cell_angle_beta                 87.311
_cell_angle_gamma                77.611
loop_
_atom_site_label
_atom_site_type_symbol
_atom_site_fract_x
_atom_site_fract_y
_atom_site_fract_z
     1  S          0.14672130       0.83141100       0.23704100
     2  S          0.85327870       0.16858900       0.76295900
     3  Cl         0.39255160       0.36979130       0.60293110
     4  Cl         0.60744840       0.63020870       0.39706890
     5  Cl         0.64208140       0.29364130       0.49632130
     6  Cl         0.35791860       0.70635870       0.50367870
     7  Cl         0.58556180       0.32722150       0.26928150
     8  Cl         0.41443820       0.67277850       0.73071850
     9  Cl         0.45682140       0.56628130       0.10341110
    10  Cl         0.54317860       0.43371870       0.89658890
    11  Cl         0.59256180       0.93053160       0.43832170
    12  Cl         0.40743820       0.06946840       0.56167830
    13  O          0.37084000       0.71803000       0.19563000
    14  O          0.62916000       0.28197000       0.80437000
    15  O          0.14214000       0.47433000       0.46773000
    16  O          0.85786000       0.52567000       0.53227000
    17  N          0.02834000       0.68543000       0.37583000
    18  N          0.97166000       0.31457000       0.62417000
    19  C          0.35745000       0.62264000       0.25484000
    20  C          0.64255000       0.37736000       0.74516000
    21  C          0.25025000       0.60054000       0.32974000
    22  C          0.74975000       0.39946000       0.67026000
    23  C          0.24785000       0.49594000       0.41904000
    24  C          0.75215000       0.50406000       0.58096000
    25  C          0.38465000       0.41694000       0.46904000
    26  C          0.61535000       0.58306000       0.53096000
    27  C          0.49325000       0.38564000       0.42084000
    28  C          0.50675000       0.61436000       0.57916000
    29  C          0.49825000       0.42434000       0.30804000
    30  C          0.50175000       0.57566000       0.69196000
    31  C          0.44015000       0.52834000       0.23524000
    32  C          0.55985000       0.47166000       0.76476000
    33  C          0.14345000       0.69344000       0.31933000
    34  C          0.85655000       0.30656000       0.68067000
    35  C          0.94145000       0.78594000       0.35914000
    36  C          0.05855000       0.21406000       0.64086000
    37  C         -0.01015000       0.87574000       0.28414000
    38  C          0.01015000       0.12426000       0.71586000
    39  C          0.91586000       0.98474000       0.25484000
    40  C          0.08414000       0.01526000       0.74516000
    41  C          0.79466000       0.00005000       0.30285000
    42  C          0.20534000      -0.00005000       0.69715000
    43  C          0.74606000       0.90835000       0.37905000
    44  C          0.25394000       0.09165000       0.62095000
    45  C          0.81845000       0.80014000       0.40965000
    46  C          0.18155000       0.19986000       0.59035000
    47  H          0.78670000       0.73480000       0.45540000
    48  H          0.21330000       0.26520000       0.54460000
    49  H          0.00410000       0.61740000       0.41630000
    50  H         -0.00410000       0.38260000       0.58370000
    51  H          0.94410000       0.05490000       0.20280000
    52  H          0.05590000       0.94510000       0.79720000
    53  H          0.74210000       0.08650000       0.28400000
    54  H          0.25790000       0.91350000       0.71600000
    55  S          0.83638120       0.95239100       0.03360100
    56  S          0.16361880       0.04760900       0.96639900
    57  Cl         0.90586180       0.42698130       0.34133130
    58  Cl         0.09413820       0.57301870       0.65866870
    59  Cl         0.18492160       0.35400120       0.26313140
    60  Cl         0.81507840       0.64599880       0.73686860
    61  Cl         0.21227150       0.45011140       0.02508140
    62  Cl         0.78772850       0.54988860       0.97491860
    63  Cl         0.13965190       0.70058150       0.88648870
    64  Cl         0.86034810       0.29941850       0.11351130
    65  Cl         0.26762160       0.09813140       0.19580140
    66  Cl         0.73237840       0.90186860       0.80419860
    67  O          0.04414000       0.82613000      -0.00133000
    68  O          0.95586000       0.17387000       0.00133000
    69  O          0.72213000       0.61543000       0.19343000
    70  O          0.27787000       0.38457000       0.80657000
    71  N          0.67004000       0.82583000       0.13423000
    72  N          0.32996000       0.17417000       0.86577000
    73  C          0.00845000       0.73644000       0.04034000
    74  C         -0.00845000       0.26356000       0.95966000
    75  C          0.88595000       0.72154000       0.10004000
    76  C          0.11405000       0.27846000       0.89996000
    77  C          0.84405000       0.61824000       0.16554000
    78  C          0.15595000       0.38176000       0.83446000
    79  C          0.95235000       0.51174000       0.21844000
    80  C          0.04765000       0.48826000       0.78156000
    81  C          0.07205000       0.47884000       0.18144000
    82  C          0.92795000       0.52116000       0.81856000
    83  C          0.11645000       0.53645000       0.07404000
    84  C          0.88355000       0.46355000       0.92596000
    85  C          0.08525000       0.64605000       0.01314000
    86  C          0.91475000       0.35395000       0.98686000
    87  C          0.79575000       0.82224000       0.09273000
    88  C          0.20425000       0.17776000       0.90727000
    89  C          0.60115000       0.92844000       0.12574000
    90  C          0.39885000       0.07156000       0.87426000
    91  C          0.67855000       0.00974000       0.07014000
    92  C          0.32145000       0.99026000       0.92986000
    93  C          0.62725000       0.11924000       0.05234000
    94  C          0.37275000       0.88076000       0.94766000
    95  C          0.50176000       0.14475000       0.09174000
    96  C          0.49824000       0.85525000       0.90826000
    97  C          0.42625000       0.06174000       0.14764000
    98  C          0.57375000       0.93826000       0.85236000
    99  C          0.47435000       0.95284000       0.16614000
   100  C          0.52565000       0.04716000       0.83386000
   101  H          0.63590000       0.75780000       0.16340000
   102  H          0.36410000       0.24220000       0.83660000
   103  H          0.42130000       0.89460000       0.20160000
   104  H          0.57870000       0.10540000       0.79840000
   105  H          0.46520000       0.22130000       0.08350000
   106  H          0.53480000       0.77870000       0.91650000
   107  H          0.67750000       0.17900000       0.00900000
   108  H          0.32250000       0.82100000      -0.00900000
   109  C          0.06598000       0.07716000       0.42506000
   110  C          0.93402000       0.92284000       0.57494000
   111  C          0.93638000       0.11076000       0.45416000
   112  C          0.06362000       0.88924000       0.54584000
   113  C          0.13128000       0.96594000       0.47207000
   114  C          0.86872000       0.03406000       0.52793000
   115  H          0.11210000       0.13820000       0.35970000
   116  H          0.88790000       0.86180000       0.64030000
   117  H          0.90260000       0.19890000       0.41460000
   118  H          0.09740000       0.80110000       0.58540000
   119  H          0.23920000       0.94500000       0.46270000
   120  H          0.76080000       0.05500000       0.53730000
