data_XAQQUC
_symmetry_space_group_name_H-M    'P1'
_symmetry_Int_Tables_number       1
loop_
_symmetry_equiv_pos_site_id
_symmetry_equiv_pos_as_xyz
1 x,y,z
_cell_length_a                   7.10538
_cell_length_b                   11.801013
_cell_length_c                   19.6482
_cell_angle_alpha                93.6572
_cell_angle_beta                 92.8002
_cell_angle_gamma                91.0612
loop_
_atom_site_label
_atom_site_type_symbol
_atom_site_fract_x
_atom_site_fract_y
_atom_site_fract_z
     1  O          0.42311180       0.40620100       0.43010600
     2  O          0.57688820       0.59379900       0.56989400
     3  N          0.42192000       0.36683120       0.54182700
     4  N          0.57808000       0.63316880       0.45817300
     5  H          0.34190000       0.34620000       0.57650000
     6  H          0.65810000       0.65380000       0.42350000
     7  H          0.47080000       0.43620000       0.55070000
     8  H          0.52920000       0.56380000       0.44930000
     9  N          0.25812000       0.25081120       0.45801700
    10  N          0.74188000       0.74918880       0.54198300
    11  C          0.20073000       0.17476140       0.50751800
    12  C          0.79927000       0.82523860       0.49248200
    13  C          0.33453000       0.10592150       0.53659900
    14  C          0.66547000       0.89407850       0.46340100
    15  H          0.45930000       0.10580000       0.52130000
    16  H          0.54070000       0.89420000       0.47870000
    17  C          0.28573000       0.03704160       0.58824100
    18  C          0.71427000       0.96295840       0.41175900
    19  H          0.37730000      -0.00950000       0.60870000
    20  H          0.62270000       0.00950000       0.39130000
    21  C          0.10213000       0.03674160       0.60961100
    22  C          0.89787000       0.96325840       0.39038900
    23  H          0.06820000      -0.00980000       0.64500000
    24  H          0.93180000       0.00980000       0.35500000
    25  C          0.96967000       0.10351160       0.57974100
    26  C          0.03033000       0.89648840       0.42025900
    27  H          0.84460000       0.10210000       0.59480000
    28  H          0.15540000       0.89790000       0.40520000
    29  C          0.01423000       0.17381150       0.52761900
    30  C         -0.01423000       0.82618850       0.47238100
    31  C          0.86797000       0.24305160       0.49772110
    32  C          0.13203000       0.75694840       0.50227890
    33  H          0.77130000       0.26690000       0.52680000
    34  H          0.22870000       0.73310000       0.47320000
    35  C          0.85447000       0.27688170       0.43396120
    36  C          0.14553000       0.72311830       0.56603880
    37  H          0.74990000       0.32270000       0.42320000
    38  H          0.25010000       0.67730000       0.57680000
    39  C         -0.01893000       0.25183150       0.37897100
    40  C          0.01893000       0.74816850       0.62102900
    41  C          0.90786000       0.24532180       0.31132120
    42  C          0.09214000       0.75467820       0.68867880
    43  H          0.77700000       0.25580000       0.30240000
    44  H          0.22300000       0.74420000       0.69760000
    45  C          0.02104000       0.22422180       0.25768120
    46  C          0.97896000       0.77577820       0.74231880
    47  H          0.96810000       0.22090000       0.21220000
    48  H          0.03190000       0.77910000       0.78780000
    49  C          0.21234000       0.20763170       0.26934110
    50  C          0.78766000       0.79236830       0.73065890
    51  H          0.29030000       0.19330000       0.23190000
    52  H          0.70970000       0.80670000       0.76810000
    53  C          0.29013000       0.21200160       0.33602900
    54  C          0.70987000       0.78799840       0.66397100
    55  H          0.42040000       0.19880000       0.34440000
    56  H          0.57960000       0.80120000       0.65560000
    57  C          0.17543000       0.23585140       0.38989900
    58  C          0.82457000       0.76414860       0.61010100
    59  C          0.37052000       0.34597140       0.47529800
    60  C          0.62948000       0.65402860       0.52470200
    61  O          0.00238170       0.62471100       0.05901600
    62  O         -0.00238170       0.37528900       0.94098400
    63  N          0.14382000       0.60824120       0.95811300
    64  N          0.85618000       0.39175880       0.04188700
    65  H          0.24450000       0.61930000       0.92950000
    66  H          0.75550000       0.38070000       0.07050000
    67  H          0.10330000       0.52940000       0.95160000
    68  H          0.89670000       0.47060000       0.04840000
    69  N          0.18612000       0.77186110       0.03018700
    70  N          0.81388000       0.22813890       0.96981300
    71  C          0.19083000       0.81936140       0.09939800
    72  C          0.80917000       0.18063860       0.90060200
    73  C          0.04003000       0.88137140       0.12250900
    74  C          0.95997000       0.11862860       0.87749100
    75  H          0.93460000       0.89330000       0.09230000
    76  H          0.06540000       0.10670000       0.90770000
    77  C          0.04283000       0.92594150       0.18953900
    78  C          0.95717000       0.07405850       0.81046100
    79  H          0.93950000       0.96850000       0.20530000
    80  H          0.06050000       0.03150000       0.79470000
    81  C          0.19703000       0.90823160       0.23361900
    82  C          0.80297000       0.09176840       0.76638100
    83  H          0.19970000       0.93920000       0.27950000
    84  H          0.80030000       0.06080000       0.72050000
    85  C          0.34543000       0.84597160       0.21084900
    86  C          0.65457000       0.15402840       0.78915100
    87  H          0.44910000       0.83340000       0.24160000
    88  H          0.55090000       0.16660000       0.75840000
    89  C          0.34713000       0.80047150       0.14305900
    90  C          0.65287000       0.19952850       0.85694100
    91  C          0.51143000       0.73796160       0.12045900
    92  C          0.48857000       0.26203840       0.87954100
    93  H          0.57240000       0.69300000       0.15300000
    94  H          0.42760000       0.30700000       0.84700000
    95  C          0.58523000       0.73729160       0.05887900
    96  C          0.41477000       0.26270840       0.94112100
    97  H          0.69360000       0.69270000       0.05240000
    98  H          0.30640000       0.30730000       0.94760000
    99  C          0.51513000       0.79867140       0.00069900
   100  C          0.48487000       0.20132860      -0.00069900
   101  C          0.64463000       0.84144160       0.95624100
   102  C          0.35537000       0.15855840       0.04375900
   103  H          0.77510000       0.82740000       0.96340000
   104  H          0.22490000       0.17260000       0.03660000
   105  C          0.58413000       0.90372160       0.90237900
   106  C          0.41587000       0.09627840       0.09762100
   107  H          0.67340000       0.93390000       0.87360000
   108  H          0.32660000       0.06610000       0.12640000
   109  C          0.39353000       0.92232160       0.89020900
   110  C          0.60647000       0.07767840       0.10979100
   111  H          0.35250000       0.96460000       0.85290000
   112  H          0.64750000       0.03540000       0.14710000
   113  C          0.26253000       0.87911150       0.93262100
   114  C          0.73747000       0.12088850       0.06737900
   115  H          0.13190000       0.89160000       0.92440000
   116  H          0.86810000       0.10840000       0.07560000
   117  C          0.32423000       0.81741140       0.98724200
   118  C          0.67577000       0.18258860       0.01275800
   119  C          0.10752000       0.66371140       0.01703800
   120  C          0.89248000       0.33628860       0.98296200
   121  N          0.57542000       0.41181130       0.14862800
   122  N          0.42458000       0.58818870       0.85137200
   123  N          0.83988000       0.64435120       0.34395700
   124  N          0.16012000       0.35564880       0.65604300
   125  C          0.46413000       0.48281150       0.25655900
   126  C          0.53587000       0.51718850       0.74344100
   127  H          0.48950000       0.49760000       0.30420000
   128  H          0.51050000       0.50240000       0.69580000
   129  C          0.60153000       0.43715160       0.21585100
   130  C          0.39847000       0.56284840       0.78414900
   131  H          0.72120000       0.42300000       0.23690000
   132  H          0.27880000       0.57700000       0.76310000
   133  C          0.40583000       0.43548160       0.12090100
   134  C          0.59417000       0.56451840       0.87909900
   135  H          0.38360000       0.41930000       0.07320000
   136  H          0.61640000       0.58070000       0.92680000
   137  C          0.26123000       0.48179160       0.15712900
   138  C          0.73877000       0.51820840       0.84287100
   139  H          0.14380000       0.49640000       0.13450000
   140  H          0.85620000       0.50360000       0.86550000
   141  C          0.28883000       0.50681140       0.22691900
   142  C          0.71117000       0.49318860       0.77308100
   143  C          0.13523000       0.55581140       0.26737800
   144  C          0.86477000       0.44418860       0.73262200
   145  C          0.00893000       0.63277150       0.24054900
   146  C         -0.00893000       0.36722850       0.75945100
   147  H          0.02000000       0.65600000       0.19550000
   148  H         -0.02000000       0.34400000       0.80450000
   149  C          0.86797000       0.67454150       0.28043900
   150  C          0.13203000       0.32545850       0.71956100
   151  H          0.78550000       0.72820000       0.26170000
   152  H          0.21450000       0.27180000       0.73830000
   153  C          0.96207000       0.57034160       0.36875900
   154  C          0.03793000       0.42965840       0.63124100
   155  H          0.94580000       0.54700000       0.41350000
   156  H          0.05420000       0.45300000       0.58650000
   157  C          0.11003000       0.52573150       0.33349900
   158  C          0.88997000       0.47426850       0.66650100
   159  H          0.19380000       0.47490000       0.35430000
   160  H          0.80620000       0.52510000       0.64570000
