data_XAQVOA
_symmetry_space_group_name_H-M    'P1'
_symmetry_Int_Tables_number       1
loop_
_symmetry_equiv_pos_site_id
_symmetry_equiv_pos_as_xyz
1 x,y,z
_cell_length_a                   6.09642
_cell_length_b                   7.30022
_cell_length_c                   14.69791
_cell_angle_alpha                101.9271
_cell_angle_beta                 91.0772
_cell_angle_gamma                93.5252
loop_
_atom_site_label
_atom_site_type_symbol
_atom_site_fract_x
_atom_site_fract_y
_atom_site_fract_z
     1  S          0.67811000       0.28121000       0.64221000
     2  S          0.32189000       0.71879000       0.35779000
     3  O          0.56593000       0.40092000       0.59091000
     4  O          0.43407000       0.59908000       0.40909000
     5  O          0.91683000       0.29982000       0.63601000
     6  O          0.08317000       0.70018000       0.36399000
     7  O          0.59293000       0.08562000       0.61761000
     8  O          0.40707000       0.91438000       0.38239000
     9  C          0.62154000       0.36043000       0.76132000
    10  C          0.37846000       0.63957000       0.23868000
    11  C          0.43085000       0.44495000       0.78702000
    12  C          0.56915000       0.55505000       0.21298000
    13  C          0.38425000       0.49885000       0.88022000
    14  C          0.61575000       0.50115000       0.11978000
    15  C          0.52624000       0.46993000       0.94992000
    16  C          0.47376000       0.53007000       0.05008000
    17  C          0.71664000       0.38374000       0.92242000
    18  C          0.28336000       0.61626000       0.07758000
    19  C          0.76454000       0.32884000       0.82912000
    20  C          0.23546000       0.67116000       0.17088000
    21  H          0.33035000       0.46645000       0.74082000
    22  H          0.66965000       0.53355000       0.25918000
    23  H          0.25155000       0.55715000       0.89682000
    24  H          0.74845000       0.44285000       0.10318000
    25  H          0.81714000       0.36154000       0.96852000
    26  H          0.18286000       0.63846000       0.03148000
    27  H          0.89634000       0.26934000       0.81212000
    28  H          0.10366000       0.73066000       0.18788000
    29  C          0.04594000       0.77903000       0.59632000
    30  C          0.95406000       0.22097000       0.40368000
    31  N          0.83333000       0.76183000       0.61182000
    32  N          0.16667000       0.23817000       0.38818000
    33  N          0.16423000       0.62953000       0.59051000
    34  N          0.83577000       0.37047000       0.40949000
    35  N          0.13853000       0.94333000       0.58901000
    36  N          0.86147000       0.05667000       0.41099000
    37  H          0.75383000       0.85993000       0.61732000
    38  H          0.24617000       0.14007000       0.38268000
    39  H          0.77143000       0.65223000       0.61672000
    40  H          0.22857000       0.34777000       0.38328000
    41  H          0.30653000       0.63953000       0.58171000
    42  H          0.69347000       0.36047000       0.41829000
    43  H          0.10013000       0.52083000       0.59551000
    44  H          0.89987000       0.47917000       0.40449000
    45  H          0.05893000       0.04133000       0.59451000
    46  H          0.94107000       0.95867000       0.40549000
    47  H          0.27993000       0.95493000       0.57871000
    48  H          0.72007000       0.04507000       0.42129000
    49  C          0.25956000       0.95875000       0.83262000
    50  C          0.74044000       0.04125000       0.16738000
    51  C          0.12565000      -0.02196000       0.91902000
    52  C          0.87435000       0.02196000       0.08098000
    53  C          0.91225000       0.89784000       0.91662000
    54  C          0.08775000       0.10216000       0.08338000
    55  C          0.21045000       0.08074000       0.00422000
    56  C          0.78955000       0.91926000      -0.00422000
    57  H          0.41646000       0.97423200       0.85032000
    58  H          0.58354000       0.02576800       0.14968000
    59  H          0.22302800       0.05522000       0.79848000
    60  H          0.77697200       0.94478000       0.20152000
    61  H          0.22612900       0.83421200       0.79308000
    62  H          0.77387100       0.16578800       0.20692000
    63  H          0.84965000       0.82694000       0.85942000
    64  H          0.15035000       0.17306000       0.14058000
    65  H          0.35575000       0.13724000       0.00792000
    66  H          0.64425000       0.86276000      -0.00792000
