data_XAQWOB
_symmetry_space_group_name_H-M    'P1'
_symmetry_Int_Tables_number       1
loop_
_symmetry_equiv_pos_site_id
_symmetry_equiv_pos_as_xyz
1 x,y,z
_cell_length_a                   9.19691
_cell_length_b                   9.92802
_cell_length_c                   14.26221
_cell_angle_alpha                83.0011
_cell_angle_beta                 83.0201
_cell_angle_gamma                80.4431
loop_
_atom_site_label
_atom_site_type_symbol
_atom_site_fract_x
_atom_site_fract_y
_atom_site_fract_z
     1  S          0.20711000       0.05071000       0.86671000
     2  S          0.79289000       0.94929000       0.13329000
     3  O          0.20652000       0.16191000       0.92441000
     4  O          0.79348000       0.83809000       0.07559000
     5  O          0.33331000       0.94089000       0.87831000
     6  O          0.66669000       0.05911000       0.12169000
     7  O          0.06681000      -0.00301000       0.87891000
     8  O          0.93319000       0.00301000       0.12109000
     9  C          0.22892000       0.12222000       0.74651000
    10  C          0.77108000       0.87778000       0.25349000
    11  C          0.35052000       0.07322000       0.68631000
    12  C          0.64948000       0.92678000       0.31369000
    13  C          0.36292000       0.12622000       0.59131000
    14  C          0.63708000       0.87378000       0.40869000
    15  C          0.25372000       0.22722000       0.55441000
    16  C          0.74628000       0.77278000       0.44559000
    17  C          0.13452000       0.27792000       0.61801000
    18  C          0.86548000       0.72208000       0.38199000
    19  C          0.12152000       0.22632000       0.71251000
    20  C          0.87848000       0.77368000       0.28749000
    21  C          0.26282000       0.27652000       0.45131000
    22  C          0.73718000       0.72348000       0.54869000
    23  C          0.13612000       0.34122000       0.40961000
    24  C          0.86388000       0.65878000       0.59039000
    25  C          0.14342000       0.39062000       0.31401000
    26  C          0.85658000       0.60938000       0.68599000
    27  C          0.27852000       0.37512000       0.25831000
    28  C          0.72148000       0.62488000       0.74169000
    29  C          0.40522000       0.30682000       0.29751000
    30  C          0.59478000       0.69318000       0.70249000
    31  C          0.39672000       0.25912000       0.39311000
    32  C          0.60328000       0.74088000       0.60689000
    33  S          0.29021000       0.44661000       0.13761000
    34  S          0.70979000       0.55339000       0.86239000
    35  O          0.42951000       0.50191000       0.12031000
    36  O          0.57049000       0.49809000       0.87969000
    37  O          0.28661000       0.33591000       0.08021000
    38  O          0.71339000       0.66409000       0.91979000
    39  O          0.16171000       0.55461000       0.13021000
    40  O          0.83829000       0.44539000       0.86979000
    41  H          0.42522000       0.00372000       0.70971000
    42  H          0.57478000      -0.00372000       0.29029000
    43  H          0.44742000       0.09302000       0.55051000
    44  H          0.55258000       0.90698000       0.44949000
    45  H          0.06092000       0.34952000       0.59561000
    46  H          0.93908000       0.65048000       0.40439000
    47  H          0.03932000       0.26182000       0.75431000
    48  H          0.96068000       0.73818000       0.24569000
    49  H          0.04322000       0.35162000       0.44741000
    50  H          0.95678000       0.64838000       0.55259000
    51  H          0.05632000       0.43482000       0.28681000
    52  H          0.94368000       0.56518000       0.71319000
    53  H          0.49712000       0.29312000       0.25901000
    54  H          0.50288000       0.70688000       0.74099000
    55  H          0.48392000       0.21342000       0.41961000
    56  H          0.51608000       0.78658000       0.58039000
    57  C          0.64592000       0.11932000       0.89811000
    58  C          0.35408000       0.88068000       0.10189000
    59  N          0.52562000       0.21362000       0.89791000
    60  N          0.47438000       0.78638000       0.10209000
    61  N          0.63292000      -0.01242000       0.89851000
    62  N          0.36708000       0.01242000       0.10149000
    63  N          0.77772000       0.15752000       0.89531000
    64  N          0.22228000       0.84248000       0.10469000
    65  H          0.53362000       0.30102000       0.89601000
    66  H          0.46638000       0.69898000       0.10399000
    67  H          0.43772000       0.18872000       0.89971000
    68  H          0.56228000       0.81128000       0.10029000
    69  H          0.71252000       0.92468000       0.89701000
    70  H          0.28748000       0.07532000       0.10299000
    71  H          0.54462000       0.96348000       0.90041000
    72  H          0.45538000       0.03652000       0.09959000
    73  H          0.78502000       0.24512000       0.89341000
    74  H          0.21498000       0.75488000       0.10659000
    75  H          0.85802000       0.09542000       0.89541000
    76  H          0.14198000       0.90458000       0.10459000
    77  C          0.85102000       0.38262000       0.09731000
    78  C          0.14898000       0.61738000       0.90269000
    79  N          0.71992000       0.34552000       0.09551000
    80  N          0.28008000       0.65448000       0.90449000
    81  N          0.97042000       0.28782000       0.10061000
    82  N          0.02958000       0.71218000       0.89939000
    83  N          0.86412000       0.51422000       0.09821000
    84  N          0.13588000       0.48578000       0.90179000
    85  H          0.71242000       0.25812000       0.09661000
    86  H          0.28758000       0.74188000       0.90339000
    87  H          0.64022000       0.40812000       0.09331000
    88  H          0.35978000       0.59188000       0.90669000
    89  H          0.96222000       0.20052000       0.10161000
    90  H          0.03778000       0.79948000       0.89839000
    91  H          0.05792000       0.31192000       0.10181000
    92  H          0.94208000       0.68808000       0.89819000
    93  H          0.78482000       0.57762000       0.09771000
    94  H          0.21518000       0.42238000       0.90229000
    95  H          0.95192000       0.53772000       0.09941000
    96  H          0.04808000       0.46228000       0.90059000
    97  C          0.81713000       0.22133000       0.36572000
    98  C          0.18287000       0.77867000       0.63428000
    99  C          0.82912000       0.12713000       0.44522000
   100  C          0.17088000       0.87287000       0.55478000
   101  C          0.77612000       0.16262000       0.53612000
   102  C          0.22388000       0.83738000       0.46388000
   103  C          0.70812000       0.29882000       0.54642000
   104  C          0.29188000       0.70118000       0.45358000
   105  C          0.69902000       0.39322000       0.46552000
   106  C          0.30098000       0.60678000       0.53448000
   107  C          0.75253000       0.35543000       0.37602000
   108  C          0.24747000       0.64457000       0.62398000
   109  C          0.79143000       0.05792000       0.62182000
   110  C          0.20857000       0.94208000       0.37818000
   111  C          0.64583000       0.34083000       0.64282000
   112  C          0.35417000       0.65917000       0.35718000
   113  H          0.85303000       0.19413000       0.30442000
   114  H          0.14697000       0.80587000       0.69558000
   115  H          0.87492000       0.03543000       0.43772000
   116  H          0.12508000       0.96457000       0.56228000
   117  H          0.65512000       0.48562000       0.47212000
   118  H          0.34488000       0.51438000       0.52788000
   119  H          0.74493000       0.42133000       0.32192000
   120  H          0.25507000       0.57867000       0.67808000
   121  H          0.83421700       0.96786000       0.60122000
   122  H          0.16578300       0.03214000       0.39878000
   123  H          0.69353000       0.05271200       0.65677000
   124  H          0.30647000       0.94728800       0.34323000
   125  H          0.85631500       0.08539000       0.66336000
   126  H          0.14368500       0.91461000       0.33664000
   127  H          0.60281700       0.43825000       0.63682000
   128  H          0.39718300       0.56175000       0.36318000
   129  H          0.72525000       0.32581600       0.68464000
   130  H          0.27475000       0.67418400       0.31536000
   131  H          0.56871300       0.28571200       0.66975000
   132  H          0.43128700       0.71428800       0.33025000
