data_XAQXIY
_symmetry_space_group_name_H-M    'P1'
_symmetry_Int_Tables_number       1
loop_
_symmetry_equiv_pos_site_id
_symmetry_equiv_pos_as_xyz
1 x,y,z
_cell_length_a                   7.3765
_cell_length_b                   7.9155
_cell_length_c                   16.7785
_cell_angle_alpha                89.2485
_cell_angle_beta                 86.9635
_cell_angle_gamma                100.6095
loop_
_atom_site_label
_atom_site_type_symbol
_atom_site_fract_x
_atom_site_fract_y
_atom_site_fract_z
     1  O          0.13779110       0.92904900       0.41504500
     2  O          0.86220890       0.07095100       0.58495500
     3  O          0.29469110       0.76482100       0.48039500
     4  O          0.70530890       0.23517900       0.51960500
     5  O          0.18565120       0.43761100       0.47036500
     6  O          0.81434880       0.56238900       0.52963500
     7  H          0.23720000       0.53420000       0.48651000
     8  H          0.76280000       0.46580000       0.51349000
     9  C          0.18963140       0.78972130       0.42607600
    10  C          0.81036860       0.21027870       0.57392400
    11  C          0.12546140       0.64283130       0.37236600
    12  C          0.87453860       0.35716870       0.62763400
    13  C          0.06926150       0.67270140       0.29829700
    14  C          0.93073850       0.32729860       0.70170300
    15  H          0.06890000       0.78520000       0.28160000
    16  H          0.93110000       0.21480000       0.71840000
    17  C          0.01141150       0.53689160       0.24609700
    18  C         -0.01141150       0.46310840       0.75390300
    19  C          0.95833810       0.56652000       0.16811800
    20  C          0.04166190       0.43348000       0.83188200
    21  H          0.96190000       0.67830000       0.14940000
    22  H          0.03810000       0.32170000       0.85060000
    23  C          0.90168000       0.43043000       0.12017900
    24  C          0.09832000       0.56957000       0.87982100
    25  H          0.86780000       0.45020000       0.06880000
    26  H          0.13220000       0.54980000       0.93120000
    27  C          0.89448000       0.26252000       0.14790900
    28  C          0.10552000       0.73748000       0.85209100
    29  H          0.85360000       0.17140000       0.11490000
    30  H          0.14640000       0.82860000       0.88510000
    31  C          0.94565810       0.22952000       0.22167900
    32  C          0.05434190       0.77048000       0.77832100
    33  H          0.94060000       0.11640000       0.23880000
    34  H          0.05940000       0.88360000       0.76120000
    35  C          0.00744150       0.36674150       0.27341700
    36  C         -0.00744150       0.63325850       0.72658300
    37  C          0.06631160       0.33703140       0.34944700
    38  C          0.93368840       0.66296860       0.65055300
    39  H          0.06400000       0.22490000       0.36740000
    40  H          0.93600000       0.77510000       0.63260000
    41  C          0.12711140       0.47123130       0.39757600
    42  C          0.87288860       0.52876870       0.60242400
    43  O          0.37960130       0.47294100       0.61522500
    44  O          0.62039870       0.52705900       0.38477500
    45  O          0.40530130       0.29446100       0.71466500
    46  O          0.59469870       0.70553900       0.28533500
    47  H          0.34530000       0.21230000       0.67221200
    48  H          0.65470000       0.78770000       0.32778800
    49  O          0.46208130       0.79770110       0.63173500
    50  O          0.53791870       0.20229890       0.36826500
    51  H          0.41530000       0.69420000       0.61331000
    52  H          0.58470000       0.30580000       0.38669000
    53  C          0.42173150       0.44921140       0.68334700
    54  C          0.57826850       0.55078860       0.31665300
    55  C          0.49233150       0.59234140       0.73570700
    56  C          0.50766850       0.40765860       0.26429300
    57  C          0.54130160       0.56337160       0.81142700
    58  C          0.45869840       0.43662840       0.18857300
    59  H          0.53190000       0.45090000       0.83030000
    60  H          0.46810000       0.54910000       0.16970000
    61  C          0.60566170       0.70036180       0.86147700
    62  C          0.39433830       0.29963820       0.13852300
    63  C          0.65572000       0.67322000       0.94031800
    64  C          0.34428000       0.32678000       0.05968200
    65  H          0.64790000       0.56190000       0.96040000
    66  H          0.35210000       0.43810000       0.03960000
    67  C          0.71533000       0.81013000       0.98679100
    68  C          0.28467000       0.18987000       0.01320900
    69  H          0.74740000       0.79160000       0.03860000
    70  H          0.25260000       0.20840000       0.96140000
    71  C          0.72853000       0.97733000       0.95727110
    72  C          0.27147000       0.02267000       0.04272890
    73  H          0.77020000       0.06910000       0.98970000
    74  H          0.22980000       0.93090000       0.01030000
    75  C          0.68202000       0.00912000       0.88229100
    76  C          0.31798000      -0.00912000       0.11770900
    77  H          0.69110000       0.12190000       0.86390000
    78  H          0.30890000       0.87810000       0.13610000
    79  C          0.61941170       0.87077170       0.83168700
    80  C          0.38058830       0.12922830       0.16831300
    81  C          0.57106170       0.89896150       0.75377700
    82  C          0.42893830       0.10103850       0.24622300
    83  H          0.58140000       0.01090000       0.73400000
    84  H          0.41860000      -0.01090000       0.26600000
    85  C          0.50890150       0.76404140       0.70643700
    86  C          0.49109850       0.23595860       0.29356300
    87  N          0.31600140       0.14701120       0.52578600
    88  N          0.68399860       0.85298880       0.47421400
    89  H          0.27701900       0.25020000       0.51938000
    90  H          0.72298100       0.74980000       0.48062000
    91  H          0.26620000       0.07420000       0.48429000
    92  H          0.73380000       0.92580000       0.51571000
    93  H          0.44420000       0.16521700       0.52278000
    94  H          0.55580000       0.83478300       0.47722000
    95  N          0.25397150       0.07702120       0.60419600
    96  N          0.74602850       0.92297880       0.39580400
    97  H          0.28391900       0.97180000       0.60518000
    98  H          0.71608100       0.02820000       0.39482000
    99  H          0.13120000       0.06611900       0.60329000
   100  H          0.86880000       0.93388100       0.39671000
