data_XASDAW
_symmetry_space_group_name_H-M    'P1'
_symmetry_Int_Tables_number       1
loop_
_symmetry_equiv_pos_site_id
_symmetry_equiv_pos_as_xyz
1 x,y,z
_cell_length_a                   12.2202
_cell_length_b                   4.8542
_cell_length_c                   14.3673
_cell_angle_alpha                90.0
_cell_angle_beta                 103.1001
_cell_angle_gamma                90.0
loop_
_atom_site_label
_atom_site_type_symbol
_atom_site_fract_x
_atom_site_fract_y
_atom_site_fract_z
     1  Br         0.52961300       0.59413800       0.16107200
     2  Br         0.47038700       0.09413800       0.33892800
     3  Br         0.47038700       0.40586200       0.83892800
     4  Br         0.52961300       0.90586200       0.66107200
     5  O          0.65062000       0.83555000       0.98137190
     6  O          0.34938000       0.33555000       0.51862810
     7  O          0.34938000       0.16445000       0.01862810
     8  O          0.65062000       0.66445000       0.48137190
     9  O          0.74852180       0.48425000       0.06006170
    10  O          0.25147820      -0.01575000       0.43993830
    11  O          0.25147820       0.51575000       0.93993830
    12  O          0.74852180       0.01575000       0.56006170
    13  H          0.79900000       0.58630000       0.05330000
    14  H          0.20100000       0.08630000       0.44670000
    15  H          0.20100000       0.41370000       0.94670000
    16  H          0.79900000       0.91370000       0.55330000
    17  C          0.65593000       0.61787000       0.02132000
    18  C          0.34407000       0.11787000       0.47868000
    19  C          0.34407000       0.38213000       0.97868000
    20  C          0.65593000       0.88213000       0.52132000
    21  C          0.55243000       0.46417000       0.03662000
    22  C          0.44757000       0.96417000       0.46338000
    23  C          0.44757000       0.53583000       0.96338000
    24  C          0.55243000       0.03583000       0.53662000
    25  H          0.58250000       0.25670000       0.04450000
    26  H          0.41750000       0.75670000       0.45550000
    27  H          0.41750000       0.74330000       0.95550000
    28  H          0.58250000       0.24330000       0.54450000
    29  O          0.92595180       0.75005000       0.04593160
    30  O          0.07404820       0.25005000       0.45406840
    31  O          0.07404820       0.24995000       0.95406840
    32  O          0.92595180       0.74995000       0.54593160
    33  N          0.11272000       0.82996000       0.09074180
    34  N          0.88728000       0.32996000       0.40925820
    35  N          0.88728000       0.17004000       0.90925820
    36  N          0.11272000       0.67004000       0.59074180
    37  H          0.09960000       0.96950000       0.04050000
    38  H          0.90040000       0.46950000       0.45950000
    39  H          0.90040000       0.03050000       0.95950000
    40  H          0.09960000       0.53050000       0.54050000
    41  C          0.02033000       0.68677000       0.09962000
    42  C          0.97967000       0.18677000       0.40038000
    43  C          0.97967000       0.31323000       0.90038000
    44  C          0.02033000       0.81323000       0.59962000
    45  C          0.03673000       0.47597000       0.17002000
    46  C          0.96327000      -0.02403000       0.32998000
    47  C          0.96327000       0.52403000       0.82998000
    48  C          0.03673000       0.02403000       0.67002000
    49  H          0.96220000       0.35090000       0.17820000
    50  H          0.03780000       0.85090000       0.32180000
    51  H          0.03780000       0.64910000       0.82180000
    52  H          0.96220000       0.14910000       0.67820000
    53  C          0.14073000       0.42887000       0.22552000
    54  C          0.85927000       0.92887000       0.27448000
    55  C          0.85927000       0.57113000       0.77448000
    56  C          0.14073000       0.07113000       0.72552000
    57  H          0.16100000       0.28770000       0.27950000
    58  H          0.83900000       0.78770000       0.22050000
    59  H          0.83900000       0.71230000       0.72050000
    60  H          0.16100000       0.21230000       0.77950000
    61  C          0.23313000       0.58688000       0.21403000
    62  C          0.76687000       0.08688000       0.28597000
    63  C          0.76687000       0.41312000       0.78597000
    64  C          0.23313000       0.91312000       0.71403000
    65  H          0.29960000       0.56080000       0.24910000
    66  H          0.70040000       0.06080000       0.25090000
    67  H          0.70040000       0.43920000       0.75090000
    68  H          0.29960000       0.93920000       0.74910000
    69  C          0.21673000       0.78158000       0.14572000
    70  C          0.78327000       0.28158000       0.35428000
    71  C          0.78327000       0.21842000       0.85428000
    72  C          0.21673000       0.71842000       0.64572000
    73  H          0.25820000       0.90950000       0.13200000
    74  H          0.74180000       0.40950000       0.36800000
    75  H          0.74180000       0.09050000       0.86800000
    76  H          0.25820000       0.59050000       0.63200000
