data_XAVLEO
_symmetry_space_group_name_H-M    'P1'
_symmetry_Int_Tables_number       1
loop_
_symmetry_equiv_pos_site_id
_symmetry_equiv_pos_as_xyz
1 x,y,z
_cell_length_a                   10.122717
_cell_length_b                   10.597418
_cell_length_c                   17.4883
_cell_angle_alpha                85.3679
_cell_angle_beta                 89.3909
_cell_angle_gamma                81.3899
loop_
_atom_site_label
_atom_site_type_symbol
_atom_site_fract_x
_atom_site_fract_y
_atom_site_fract_z
     1  I          0.24388500       0.17631500       0.41418300
     2  I          0.75611500       0.82368500       0.58581700
     3  Cl         0.28522000       0.41837170       0.40907120
     4  Cl         0.71478000       0.58162830       0.59092880
     5  Cl         0.18902000       0.95758810       0.41507140
     6  Cl         0.81098000       0.04241190       0.58492860
     7  N          0.25117000       0.74956000       0.64394000
     8  N          0.74883000       0.25044000       0.35606000
     9  C          0.25588000       0.61817000       0.68064000
    10  C          0.74412000       0.38183000       0.31936000
    11  N          0.24057000       0.60026000       0.54014000
    12  N          0.75943000       0.39974000       0.45986000
    13  H          0.23663800       0.54198800       0.49817000
    14  H          0.76336200       0.45801200       0.50183000
    15  C          0.24898000       0.51957000       0.61604000
    16  C          0.75102000       0.48043000       0.38396000
    17  C          0.36888000       0.41227000       0.61454000
    18  C          0.63112000       0.58773000       0.38546000
    19  C          0.48148000       0.40507000       0.65805000
    20  C          0.51852000       0.59493000       0.34195000
    21  C          0.48837000       0.49397000       0.71785000
    22  C          0.51163000       0.50603000       0.28215000
    23  C          0.37958000       0.58237000       0.73294000
    24  C          0.62042000       0.41763000       0.26706000
    25  C          0.34198000       0.60407000       0.81015000
    26  C          0.65802000       0.39593000       0.18985000
    27  C          0.19888000       0.62387000       0.81505000
    28  C          0.80112000       0.37613000       0.18495000
    29  C          0.14348000       0.61507000       0.74025000
    30  C          0.85652000       0.38493000       0.25975000
    31  C          0.03328000       0.55527000       0.73235000
    32  C          0.96672000       0.44473000       0.26765000
    33  C          0.02648000       0.46657000       0.67205000
    34  C          0.97352000       0.53343000       0.32795000
    35  C          0.13168000       0.44297000       0.62244000
    36  C          0.86832000       0.55703000       0.37756000
    37  C          0.17438000       0.31368000       0.60364000
    38  C          0.82562000       0.68632000       0.39636000
    39  C          0.32018000       0.29478000       0.59924000
    40  C          0.67982000       0.70522000       0.40076000
    41  C          0.39328000       0.17647000       0.62254000
    42  C          0.60672000       0.82353000       0.37746000
    43  C          0.51418000       0.16967000       0.66645000
    44  C          0.48582000       0.83033000       0.33355000
    45  C          0.55637000       0.28287000       0.68405000
    46  C          0.44363000       0.71713000       0.31595000
    47  C          0.61018000       0.29517000       0.75915000
    48  C          0.38982000       0.70483000       0.24085000
    49  C          0.56828000       0.42387000       0.78045000
    50  C          0.43172000       0.57613000       0.21955000
    51  C          0.53628000       0.44617000       0.85555000
    52  C          0.46372000       0.55383000       0.14445000
    53  C          0.42118000       0.53807000       0.87145000
    54  C          0.57882000       0.46193000       0.12855000
    55  C          0.35519000       0.48907000       0.93835000
    56  C          0.64481000       0.51093000       0.06165000
    57  C          0.21779000       0.50857000       0.94295000
    58  C          0.78221000       0.49143000       0.05705000
    59  C          0.13778000       0.57767000       0.88005000
    60  C          0.86222000       0.42233000       0.11995000
    61  C          0.01938000       0.51798000       0.87155000
    62  C          0.98062000       0.48202000       0.12845000
    63  C          0.96802000       0.50587000       0.79895000
    64  C          0.03198000       0.49413000       0.20105000
    65  C          0.92262000       0.38968000       0.78145000
    66  C          0.07738000       0.61032000       0.21855000
    67  C          0.95852000       0.36517000       0.70265000
    68  C          0.04148000       0.63483000       0.29735000
    69  C         -0.00158000       0.24047000       0.68305000
    70  C          0.00158000       0.75953000       0.31695000
    71  C          0.11069000       0.21497000       0.63195000
    72  C          0.88931000       0.78503000       0.36805000
    73  C          0.18559000       0.09107000       0.65775000
    74  C          0.81441000       0.90893000       0.34225000
    75  C          0.32409000       0.07267000       0.65325000
    76  C          0.67591000       0.92733000       0.34675000
    77  C          0.40328000       0.00327000       0.71655000
    78  C          0.59672000      -0.00327000       0.28345000
    79  C          0.52198000       0.06417000       0.72455000
    80  C          0.47802000       0.93583000       0.27545000
    81  C          0.57188000       0.07517000       0.79635000
    82  C          0.42812000       0.92483000       0.20365000
    83  C          0.61928000       0.19348000       0.81395000
    84  C          0.38072000       0.80652000       0.18605000
    85  C          0.58498000       0.21708000       0.89255000
    86  C          0.41502000       0.78292000       0.10745000
    87  C          0.54339000       0.34107000       0.91305000
    88  C          0.45661000       0.65893000       0.08695000
    89  C          0.43369000       0.36788000       0.96355000
    90  C          0.56631000       0.63212000       0.03645000
    91  C          0.36391000       0.26958000      -0.00655000
    92  C          0.63609000       0.73042000       0.00655000
    93  C          0.22021000       0.28958000      -0.00195000
    94  C          0.77979000       0.71042000       0.00195000
    95  C          0.14851000       0.40808000       0.97285000
    96  C          0.85149000       0.59192000       0.02715000
    97  C          0.02568000       0.41138000       0.92885000
    98  C          0.97432000       0.58862000       0.07115000
    99  C          0.98051000       0.29898000       0.91205000
   100  C          0.01949000       0.70102000       0.08795000
   101  C          0.92782000       0.28737000       0.83655000
   102  C          0.07218000       0.71263000       0.16345000
   103  C          0.96902000       0.15867000       0.81515000
   104  C          0.03098000       0.84133000       0.18485000
   105  C          0.00358000       0.13557000       0.74095000
   106  C         -0.00358000       0.86443000       0.25905000
   107  C          0.12088000       0.04207000       0.72495000
   108  C          0.87912000       0.95793000       0.27505000
   109  C          0.19559000       0.97733000       0.78545000
   110  C          0.80441000       0.02267000       0.21455000
   111  C          0.34128000       0.95693000       0.78105000
   112  C          0.65872000       0.04307000       0.21895000
   113  C          0.39529000       0.96943000       0.85595000
   114  C          0.60471000       0.03057000       0.14405000
   115  C          0.50949000       0.02807000       0.86375000
   116  C          0.49051000       0.97193000       0.13625000
   117  C          0.51519000       0.11538000       0.92265000
   118  C          0.48481000       0.88462000       0.07735000
   119  C          0.40669000       0.14148000       0.97235000
   120  C          0.59331000       0.85852000       0.02765000
   121  C          0.29029000       0.07877000       0.96405000
   122  C          0.70971000       0.92123000       0.03595000
   123  C          0.17331000       0.17138000       0.98015000
   124  C          0.82669000       0.82862000       0.01985000
   125  C          0.05579000       0.17708000       0.93805000
   126  C          0.94421000       0.82292000       0.06195000
   127  C          0.05019000       0.08848000       0.87845000
   128  C          0.94981000       0.91152000       0.12155000
   129  C          0.16109000       0.00047000       0.86345000
   130  C          0.83891000      -0.00047000       0.13655000
   131  C          0.28339000      -0.00488000       0.90755000
   132  C          0.71661000       0.00488000       0.09245000
   133  C          0.36618000       0.75547000       0.59225000
   134  C          0.63382000       0.24453000       0.40775000
   135  H          0.45013300       0.73058400       0.62179100
   136  H          0.54986700       0.26941600       0.37820900
   137  H          0.36441100       0.84417300       0.56932500
   138  H          0.63558900       0.15582700       0.43067500
   139  C          0.36218000       0.66438000       0.52775000
   140  C          0.63782000       0.33562000       0.47225000
   141  H          0.35758400       0.71336400       0.47688100
   142  H          0.64241600       0.28663600       0.52311900
   143  H          0.44358800       0.59953800       0.52944700
   144  H          0.55641200       0.40046200       0.47055300
   145  C          0.12528000       0.78807000       0.59995000
   146  C          0.87472000       0.21193000       0.40005000
   147  H          0.12215500       0.87655300       0.57643600
   148  H          0.87784500       0.12344700       0.42356400
   149  H          0.04806800       0.78620900       0.63504000
   150  H          0.95193200       0.21379100       0.36496000
   151  C          0.11578000       0.69607000       0.53625000
   152  C          0.88422000       0.30393000       0.46375000
   153  H          0.03633600       0.65217200       0.54447400
   154  H          0.96366400       0.34782800       0.45552600
   155  H          0.10762900       0.74439900       0.48518400
   156  H          0.89237100       0.25560100       0.51481600
   157  S          0.11083000       0.13982000       0.18399170
   158  S          0.88917000       0.86018000       0.81600830
   159  S          0.35162000       0.28132000       0.20625150
   160  S          0.64838000       0.71868000       0.79374850
   161  C          0.23049000       0.21027000       0.19545000
   162  C          0.76951000       0.78973000       0.80455000
