data_XAVTIB
_symmetry_space_group_name_H-M    'P1'
_symmetry_Int_Tables_number       1
loop_
_symmetry_equiv_pos_site_id
_symmetry_equiv_pos_as_xyz
1 x,y,z
_cell_length_a                   11.50806
_cell_length_b                   12.07224
_cell_length_c                   15.517712
_cell_angle_alpha                111.0634
_cell_angle_beta                 106.6834
_cell_angle_gamma                90.8513
loop_
_atom_site_label
_atom_site_type_symbol
_atom_site_fract_x
_atom_site_fract_y
_atom_site_fract_z
     1  P          0.38663500       0.55939400       0.24465400
     2  P          0.61336500       0.44060600       0.75534600
     3  B          0.16272000       0.69012000       0.21116160
     4  B          0.83728000       0.30988000       0.78883840
     5  F          0.20513100       0.57648900       0.15798800
     6  F          0.79486900       0.42351100       0.84201200
     7  C          0.39734170       0.72008170       0.27896130
     8  C          0.60265830       0.27991830       0.72103870
     9  F          0.51383100       0.55369100       0.31583800
    10  F          0.48616900       0.44630900       0.68416200
    11  C          0.29310170       0.77305170       0.28097130
    12  C          0.70689830       0.22694830       0.71902870
    13  C          0.40375180       0.46284170       0.13118140
    14  C          0.59624820       0.53715830       0.86881860
    15  C          0.48952000       0.38302000       0.13596170
    16  C          0.51048000       0.61698000       0.86403830
    17  H          0.53380000       0.38090000       0.19640000
    18  H          0.46620000       0.61910000       0.80360000
    19  C          0.50943000       0.30732000       0.05226190
    20  C          0.49057000       0.69268000       0.94773810
    21  H          0.56700000       0.25350000       0.05590000
    22  H          0.43300000       0.74650000       0.94410000
    23  C          0.44582000       0.30992000       0.96358830
    24  C          0.55418000       0.69008000       0.03641170
    25  H          0.45930000       0.25760000       0.90660000
    26  H          0.54070000       0.74240000       0.09340000
    27  C          0.36232000       0.38932000       0.95862840
    28  C          0.63768000       0.61068000       0.04137160
    29  H          0.31930000       0.39150000       0.89790000
    30  H          0.68070000       0.60850000       0.10210000
    31  C          0.34062000       0.46592000       0.04109160
    32  C          0.65938000       0.53408000       0.95890840
    33  H          0.28340000       0.52000000       0.03660000
    34  H          0.71660000       0.48000000       0.96340000
    35  C          0.29618190       0.49310180       0.29490150
    36  C          0.70381810       0.50689820       0.70509850
    37  C          0.20402000       0.39932000       0.23853170
    38  C          0.79598000       0.60068000       0.76146830
    39  H          0.18340000       0.36960000       0.17040000
    40  H          0.81660000       0.63040000       0.82960000
    41  C          0.14162000       0.34872000       0.28243190
    42  C          0.85838000       0.65128000       0.71756810
    43  H          0.07880000       0.28440000       0.24410000
    44  H          0.92120000       0.71560000       0.75590000
    45  C          0.17132000       0.39252000       0.38202000
    46  C          0.82868000       0.60748000       0.61798000
    47  H          0.12790000       0.35870000       0.41140000
    48  H          0.87210000       0.64130000       0.58860000
    49  C          0.26402000       0.48522000       0.43878180
    50  C          0.73598000       0.51478000       0.56121820
    51  H          0.28410000       0.51430000       0.50690000
    52  H          0.71590000       0.48570000       0.49310000
    53  C          0.32792000       0.53612000       0.39611160
    54  C          0.67208000       0.46388000       0.60388840
    55  H          0.39200000       0.59900000       0.43490000
    56  H          0.60800000       0.40100000       0.56510000
    57  C          0.51717170       0.78751180       0.30756130
    58  C          0.48282830       0.21248820       0.69243870
    59  C          0.61813180       0.73393190       0.28426150
    60  C          0.38186820       0.26606810       0.71573850
    61  H          0.60990000       0.65040000       0.25200000
    62  H          0.39010000       0.34960000       0.74800000
    63  C          0.72768190       0.80082000       0.30752160
    64  C          0.27231810       0.19918000       0.69247840
    65  H          0.79330000       0.76230000       0.29140000
    66  H          0.20670000       0.23770000       0.70860000
    67  C          0.74384180       0.92482000       0.35455160
    68  C          0.25615820       0.07518000       0.64544840
    69  C          0.64609180       0.97920190       0.37614150
    70  C          0.35390820       0.02079810       0.62385850
    71  H          0.65580000       0.06300000       0.40700000
    72  H          0.34420000       0.93700000       0.59300000
    73  C          0.53183170       0.91375170       0.35368130
    74  C          0.46816830       0.08624830       0.64631870
    75  C          0.86382000      -0.00218000       0.37842000
    76  C          0.13618000       0.00218000       0.62158000
    77  H          0.86050000       0.08100000       0.41560000
    78  H          0.13950000       0.91900000       0.58440000
    79  H          0.87930000      -0.00880000       0.31860000
    80  H          0.12070000       0.00880000       0.68140000
    81  H          0.92900000       0.96840000       0.41630000
    82  H          0.07100000       0.03160000       0.58370000
    83  C          0.30878170       0.90222170       0.33211130
    84  C          0.69121830       0.09777830       0.66788870
    85  C          0.42672170       0.97135170       0.37310130
    86  C          0.57327830       0.02864830       0.62689870
    87  F          0.54193100       0.16542100       0.47763800
    88  F          0.45806900       0.83457900       0.52236200
    89  C          0.43388170       0.09325170       0.42982140
    90  C          0.56611830       0.90674830       0.57017860
    91  F          0.34700110       0.26423100       0.49825900
    92  F          0.65299890       0.73576900       0.50174100
    93  C          0.33415190       0.14768170       0.44355140
    94  C          0.66584810       0.85231830       0.55644860
    95  F          0.12150110       0.13412110       0.41650100
    96  F          0.87849890       0.86587890       0.58349900
    97  C          0.21981180       0.08142180       0.40167150
    98  C          0.78018820       0.91857820       0.59832850
    99  F          0.09603100       0.90130110       0.31359900
   100  F          0.90396900       0.09869890       0.68640100
   101  C          0.20899170       0.96220180       0.34835150
   102  C          0.79100830       0.03779820       0.65164850
   103  C          0.09667180       0.74442180       0.12834150
   104  C          0.90332820       0.25557820       0.87165850
   105  F          0.27625120       0.73995120       0.08174100
   106  F          0.72374880       0.26004880       0.91825900
   107  C          0.16012000       0.76525190       0.07071160
   108  C          0.83988000       0.23474810       0.92928840
   109  F          0.18145170       0.83028150       0.94843880
   110  F          0.81854830       0.16971850       0.05156120
   111  C          0.11313000       0.81202000       0.00077170
   112  C          0.88687000       0.18798000      -0.00077170
   113  F          0.94943820       0.88868140       0.91879890
   114  F          0.05056180       0.11131860       0.08120110
   115  C         -0.00313000       0.84162000       0.98591820
   116  C          0.00313000       0.15838000       0.01408180
   117  F          0.81539860       0.85387160       0.02705140
   118  F          0.18460140       0.14612840       0.97294860
   119  C          0.92918000       0.82382000       0.04044190
   120  C          0.07082000       0.17618000       0.95955810
   121  F          0.90635890       0.76529130       0.16096110
   122  F          0.09364110       0.23470870       0.83903890
   123  C          0.97958000       0.77692000       0.10960170
   124  C          0.02042000       0.22308000       0.89039830
   125  C          0.07076180       0.64735180       0.25954150
   126  C          0.92923820       0.35264820       0.74045850
   127  F          0.18245120       0.76548120       0.42382900
   128  F          0.81754880       0.23451880       0.57617100
   129  C          0.08644190       0.68453190       0.35818160
   130  C          0.91355810       0.31546810       0.64181840
   131  F          0.03235150       0.67948150       0.49303110
   132  F          0.96764850       0.32051850       0.50696890
   133  C          0.00932000       0.64112000       0.39599170
   134  C         -0.00932000       0.35888000       0.60400830
   135  F          0.83589840       0.51309160       0.36993140
   136  F          0.16410160       0.48690840       0.63006860
   137  C          0.91178000       0.55722000       0.33512000
   138  C          0.08822000       0.44278000       0.66488000
   139  F          0.79651870       0.43185150       0.17483130
   140  F          0.20348130       0.56814850       0.82516870
   141  C          0.89168000       0.51572000       0.23642000
   142  C          0.10832000       0.48428000       0.76358000
   143  F          0.94761880       0.51560120       0.10399100
   144  F          0.05238120       0.48439880       0.89600900
   145  C          0.97115810       0.56092000       0.20135160
   146  C          0.02884190       0.43908000       0.79864840
   147  C          0.66126000       0.13797000       0.21796000
   148  C          0.33874000       0.86203000       0.78204000
   149  H          0.74370000       0.14370000       0.22040000
   150  H          0.25630000       0.85630000       0.77960000
   151  C          0.58068000       0.04875000       0.14664000
   152  C          0.41932000       0.95125000       0.85336000
   153  H          0.60720000      -0.00940000       0.09960000
   154  H          0.39280000       0.00940000       0.90040000
   155  C          0.46568000       0.04056000       0.14084000
   156  C          0.53432000       0.95944000       0.85916000
   157  H          0.41090000       0.97600000       0.08990000
   158  H          0.58910000       0.02400000       0.91010000
   159  C          0.42136000       0.12448000       0.20797000
   160  C          0.57864000       0.87552000       0.79203000
   161  H          0.33780000       0.11870000       0.20270000
   162  H          0.66220000       0.88130000       0.79730000
   163  C          0.50479000       0.21616000       0.28255000
   164  C          0.49521000       0.78384000       0.71745000
   165  H          0.47930000       0.27500000       0.32970000
   166  H          0.52070000       0.72500000       0.67030000
   167  C          0.62368000       0.22025000       0.28664000
   168  C          0.37632000       0.77975000       0.71336000
   169  H          0.68130000       0.28140000       0.33830000
   170  H          0.31870000       0.71860000       0.66170000
