data_XAXFUZ
_symmetry_space_group_name_H-M    'P1'
_symmetry_Int_Tables_number       1
loop_
_symmetry_equiv_pos_site_id
_symmetry_equiv_pos_as_xyz
1 x,y,z
_cell_length_a                   18.6463
_cell_length_b                   8.21991
_cell_length_c                   9.117412
_cell_angle_alpha                90.0
_cell_angle_beta                 90.0
_cell_angle_gamma                90.0
loop_
_atom_site_label
_atom_site_type_symbol
_atom_site_fract_x
_atom_site_fract_y
_atom_site_fract_z
     1  I          0.57371600       0.75000000       0.92249880
     2  I          0.92628400       0.25000000       0.42249880
     3  I          0.42628400       0.25000000       0.07750120
     4  I          0.07371600       0.75000000       0.57750120
     5  I          0.62882700       0.75000000       0.62626880
     6  I          0.87117300       0.25000000       0.12626880
     7  I          0.37117300       0.25000000       0.37373120
     8  I          0.12882700       0.75000000       0.87373120
     9  I          0.51040800       0.75000000       0.22282130
    10  I          0.98959200       0.25000000       0.72282130
    11  I          0.48959200       0.25000000       0.77717870
    12  I          0.01040800       0.75000000       0.27717870
    13  I          0.25216700       0.25000000       0.71364870
    14  I          0.24783300       0.75000000       0.21364870
    15  I          0.74783300       0.75000000       0.28635130
    16  I          0.75216700       0.25000000       0.78635130
    17  N          0.35685000       0.90158800       0.68638900
    18  N          0.14315000       0.09841200       0.18638900
    19  N          0.64315000       0.40158800       0.31361100
    20  N          0.85685000       0.59841200       0.81361100
    21  N          0.64315000       0.09841200       0.31361100
    22  N          0.85685000       0.90158800       0.81361100
    23  N          0.35685000       0.59841200       0.68638900
    24  N          0.14315000       0.40158800       0.18638900
    25  H          0.36170000      -0.00219000       0.69586000
    26  H          0.13830000       0.00219000       0.19586000
    27  H          0.63830000       0.49781000       0.30414000
    28  H          0.86170000       0.50219000       0.80414000
    29  H          0.63830000       0.00219000       0.30414000
    30  H          0.86170000      -0.00219000       0.80414000
    31  H          0.36170000       0.50219000       0.69586000
    32  H          0.13830000       0.49781000       0.19586000
    33  C          0.29078000       0.84038600       0.60688500
    34  C          0.20922000       0.15961400       0.10688500
    35  C          0.70922000       0.34038600       0.39311500
    36  C          0.79078000       0.65961400       0.89311500
    37  C          0.70922000       0.15961400       0.39311500
    38  C          0.79078000       0.84038600       0.89311500
    39  C          0.29078000       0.65961400       0.60688500
    40  C          0.20922000       0.34038600       0.10688500
    41  H          0.24790000       0.88030000       0.65540000
    42  H          0.25210000       0.11970000       0.15540000
    43  H          0.75210000       0.38030000       0.34460000
    44  H          0.74790000       0.61970000       0.84460000
    45  H          0.75210000       0.11970000       0.34460000
    46  H          0.74790000       0.88030000       0.84460000
    47  H          0.24790000       0.61970000       0.65540000
    48  H          0.25210000       0.38030000       0.15540000
    49  H          0.29070000       0.88030000       0.50680000
    50  H          0.20930000       0.11970000       0.00680000
    51  H          0.70930000       0.38030000       0.49320000
    52  H          0.79070000       0.61970000      -0.00680000
    53  H          0.70930000       0.11970000       0.49320000
    54  H          0.79070000       0.88030000      -0.00680000
    55  H          0.29070000       0.61970000       0.50680000
    56  H          0.20930000       0.38030000       0.00680000
    57  C          0.35598000       0.84348600       0.84018800
    58  C          0.14402000       0.15651400       0.34018800
    59  C          0.64402000       0.34348600       0.15981200
    60  C          0.85598000       0.65651400       0.65981200
    61  C          0.64402000       0.15651400       0.15981200
    62  C          0.85598000       0.84348600       0.65981200
    63  C          0.35598000       0.65651400       0.84018800
    64  C          0.14402000       0.34348600       0.34018800
    65  H          0.31340000       0.88370000       0.88970000
    66  H          0.18660000       0.11630000       0.38970000
    67  H          0.68660000       0.38370000       0.11030000
    68  H          0.81340000       0.61630000       0.61030000
    69  H          0.68660000       0.11630000       0.11030000
    70  H          0.81340000       0.88370000       0.61030000
    71  H          0.31340000       0.61630000       0.88970000
    72  H          0.18660000       0.38370000       0.38970000
    73  H          0.39780000       0.88370000       0.89190000
    74  H          0.10220000       0.11630000       0.39190000
    75  H          0.60220000       0.38370000       0.10810000
    76  H          0.89780000       0.61630000       0.60810000
    77  H          0.60220000       0.11630000       0.10810000
    78  H          0.89780000       0.88370000       0.60810000
    79  H          0.39780000       0.61630000       0.89190000
    80  H          0.10220000       0.38370000       0.39190000
    81  C          0.42218000       0.84308600       0.61018500
    82  C          0.07782000       0.15691400       0.11018500
    83  C          0.57782000       0.34308600       0.38981500
    84  C          0.92218000       0.65691400       0.88981500
    85  C          0.57782000       0.15691400       0.38981500
    86  C          0.92218000       0.84308600       0.88981500
    87  C          0.42218000       0.65691400       0.61018500
    88  C          0.07782000       0.34308600       0.11018500
    89  H          0.46460000       0.88320000       0.65990000
    90  H          0.03540000       0.11680000       0.15990000
    91  H          0.53540000       0.38320000       0.34010000
    92  H          0.96460000       0.61680000       0.84010000
    93  H          0.53540000       0.11680000       0.34010000
    94  H          0.96460000       0.88320000       0.84010000
    95  H          0.46460000       0.61680000       0.65990000
    96  H          0.03540000       0.38320000       0.15990000
    97  H          0.42280000       0.88320000       0.51010000
    98  H          0.07720000       0.11680000       0.01010000
    99  H          0.57720000       0.38320000       0.48990000
   100  H          0.92280000       0.61680000      -0.01010000
   101  H          0.57720000       0.11680000       0.48990000
   102  H          0.92280000       0.88320000      -0.01010000
   103  H          0.42280000       0.61680000       0.51010000
   104  H          0.07720000       0.38320000       0.01010000
