data_XAXPOB
_symmetry_space_group_name_H-M    'P1'
_symmetry_Int_Tables_number       1
loop_
_symmetry_equiv_pos_site_id
_symmetry_equiv_pos_as_xyz
1 x,y,z
_cell_length_a                   9.68217
_cell_length_b                   18.466112
_cell_length_c                   7.42035
_cell_angle_alpha                93.6115
_cell_angle_beta                 105.6765
_cell_angle_gamma                100.6365
loop_
_atom_site_label
_atom_site_type_symbol
_atom_site_fract_x
_atom_site_fract_y
_atom_site_fract_z
     1  Cl         0.50890100       0.47673400       0.25080100
     2  Cl         0.49109900       0.52326600       0.74919900
     3  Cl         0.19220100       0.46400400       0.30550100
     4  Cl         0.80779900       0.53599600       0.69449900
     5  O          0.02562000       0.16630100       0.24833000
     6  O          0.97438000       0.83369900       0.75167000
     7  O          0.23242000       0.13950100       0.42373000
     8  O          0.76758000       0.86049900       0.57627000
     9  O          0.35832000       0.14440100       0.12043000
    10  O          0.64168000       0.85559900       0.87957000
    11  O          0.56742000       0.18770100       0.34763000
    12  O          0.43258000       0.81229900       0.65237000
    13  C          0.15603000       0.18250100       0.32263000
    14  C          0.84397000       0.81749900       0.67737000
    15  C          0.24703000       0.25550100       0.30883000
    16  C          0.75297000       0.74449900       0.69117000
    17  C          0.19003000       0.31872000       0.31904000
    18  C          0.80997000       0.68128000       0.68096000
    19  C          0.26983000       0.38680100       0.30264000
    20  C          0.73017000       0.61319900       0.69736000
    21  C          0.40963000       0.39300100       0.27934000
    22  C          0.59037000       0.60699900       0.72066000
    23  C          0.46783000       0.32992000       0.27064000
    24  C          0.53217000       0.67008000       0.72936000
    25  C          0.38673000       0.26170100       0.28263000
    26  C          0.61327000       0.73829900       0.71737000
    27  C          0.44773000       0.19380100       0.25523000
    28  C          0.55227000       0.80619900       0.74477000
    29  H          0.17540000       0.09920000       0.41150000
    30  H          0.82460000       0.90080000       0.58850000
    31  H          0.39240000       0.10520000       0.12550000
    32  H          0.60760000       0.89480000       0.87450000
    33  H          0.09640000       0.31220000       0.33740000
    34  H          0.90360000       0.68780000       0.66260000
    35  H          0.56040000       0.33620000       0.25140000
    36  H          0.43960000       0.66380000       0.74860000
    37  O          0.12362000       0.00050100       0.38193000
    38  O          0.87638000      -0.00050100       0.61807000
    39  N          0.91007000       0.00712000       0.17484000
    40  N          0.08993000      -0.00712000       0.82516000
    41  C          0.00253000       0.96838000       0.27043000
    42  C         -0.00253000       0.03162000       0.72957000
    43  C          0.95477000       0.88648000       0.23994000
    44  C          0.04523000       0.11352000       0.76006000
    45  C          0.03563000       0.84238000       0.32164000
    46  C          0.96437000       0.15762000       0.67836000
    47  C         -0.00543000       0.76038000       0.30444000
    48  C          0.00543000       0.23962000       0.69556000
    49  C          0.09994000       0.72118000       0.38705000
    50  C          0.90006000       0.27882000       0.61295000
    51  C          0.06675000       0.64438000       0.37406000
    52  C          0.93325000       0.35562000       0.62594000
    53  C          0.92755000       0.60568000       0.27905000
    54  C          0.07245000       0.39432000       0.72095000
    55  C          0.82246000       0.64338000       0.19795000
    56  C          0.17754000       0.35662000       0.80205000
    57  C          0.85396000       0.72038000       0.21015000
    58  C          0.14604000       0.27962000       0.78985000
    59  H          0.93740000       0.06620000       0.19670000
    60  H          0.06260000       0.93380000       0.80330000
    61  H          0.83140000       0.97970000       0.09670000
    62  H          0.16860000       0.02030000       0.90330000
    63  H          0.86360000       0.87280000       0.16150000
    64  H          0.13640000       0.12720000       0.83850000
    65  H          0.13140000       0.86080000       0.40050000
    66  H          0.86860000       0.13920000       0.59950000
    67  H          0.20550000       0.74780000       0.45360000
    68  H          0.79450000       0.25220000       0.54640000
    69  H          0.13850000       0.61980000       0.41560000
    70  H          0.86150000       0.38020000       0.58440000
    71  H          0.89550000       0.54670000       0.26970000
    72  H          0.10450000       0.45330000       0.73030000
    73  H          0.72050000       0.61970000       0.13460000
    74  H          0.27950000       0.38030000       0.86540000
    75  H          0.78160000       0.74280000       0.15260000
    76  H          0.21840000       0.25720000       0.84740000
    77  O          0.39032000       0.01360100       0.12273000
    78  O          0.60968000       0.98639900       0.87727000
    79  N          0.60713000       0.03450100       0.34624000
    80  N          0.39287000       0.96549900       0.65376000
    81  C          0.49103000       0.98939900       0.22913000
    82  C          0.50897000       0.01060100       0.77087000
    83  C          0.48403000       0.90849900       0.22724000
    84  C          0.51597000       0.09150100       0.77276000
    85  C          0.37453000       0.85969900       0.11184000
    86  C          0.62547000       0.14030100       0.88816000
    87  C          0.35433000       0.77879900       0.09494000
    88  C          0.64567000       0.22120100       0.90506000
    89  C          0.45414000       0.74308000       0.20864000
    90  C          0.54586000       0.25692000       0.79136000
    91  C          0.42904000       0.66618000       0.19095000
    92  C          0.57096000       0.33382000       0.80905000
    93  C          0.30654000       0.62458000       0.05945000
    94  C          0.69346000       0.37542000       0.94055000
    95  C          0.20844000       0.65848000       0.94444000
    96  C          0.79156000       0.34152000       0.05556000
    97  C          0.23193000       0.73578000       0.96295000
    98  C          0.76807000       0.26422000       0.03705000
    99  H          0.61230000       0.09020000       0.35340000
   100  H          0.38770000       0.90980000       0.64660000
   101  H          0.67340000       0.02420000       0.41960000
   102  H          0.32660000       0.97580000       0.58040000
   103  H          0.56830000       0.89380000       0.31640000
   104  H          0.43170000       0.10620000       0.68360000
   105  H          0.29940000       0.88080000       0.02940000
   106  H          0.70060000       0.11920000       0.97060000
   107  H          0.54650000       0.77580000       0.30760000
   108  H          0.45350000       0.22420000       0.69240000
   109  H          0.50740000       0.64580000       0.27150000
   110  H          0.49260000       0.35420000       0.72850000
   111  H          0.29040000       0.56780000       0.04250000
   112  H          0.70960000       0.43220000       0.95750000
   113  H          0.12450000       0.63070000       0.86040000
   114  H          0.87550000       0.36930000       0.13960000
   115  H          0.16350000       0.75980000       0.88840000
   116  H          0.83650000       0.24020000       0.11160000
