data_XAXQAS01
_symmetry_space_group_name_H-M    'P1'
_symmetry_Int_Tables_number       1
loop_
_symmetry_equiv_pos_site_id
_symmetry_equiv_pos_as_xyz
1 x,y,z
_cell_length_a                   29.09786
_cell_length_b                   5.724501
_cell_length_c                   11.57313
_cell_angle_alpha                90.0
_cell_angle_beta                 95.663711
_cell_angle_gamma                90.0
loop_
_atom_site_label
_atom_site_type_symbol
_atom_site_fract_x
_atom_site_fract_y
_atom_site_fract_z
     1  C          0.38774180       0.56981000       0.66855000
     2  C          0.61225820       0.56981000       0.83145000
     3  C          0.88774180       0.06981000       0.66855000
     4  C          0.11225820       0.06981000       0.83145000
     5  C          0.61225820       0.43019000       0.33145000
     6  C          0.38774180       0.43019000       0.16855000
     7  C          0.11225820       0.93019000       0.33145000
     8  C          0.88774180       0.93019000       0.16855000
     9  C          0.42532000       0.59911100       0.60615000
    10  C          0.57468000       0.59911100       0.89385000
    11  C          0.92532000       0.09911100       0.60615000
    12  C          0.07468000       0.09911100       0.89385000
    13  C          0.57468000       0.40088900       0.39385000
    14  C          0.42532000       0.40088900       0.10615000
    15  C          0.07468000       0.90088900       0.39385000
    16  C          0.92532000       0.90088900       0.10615000
    17  C          0.45692180       0.77361100       0.63325000
    18  C          0.54307820       0.77361100       0.86675000
    19  C          0.95692180       0.27361100       0.63325000
    20  C          0.04307820       0.27361100       0.86675000
    21  C          0.54307820       0.22638900       0.36675000
    22  C          0.45692180       0.22638900       0.13325000
    23  C          0.04307820       0.72638900       0.36675000
    24  C          0.95692180       0.72638900       0.13325000
    25  C          0.45238190       0.92531100       0.72475000
    26  C          0.54761810       0.92531100       0.77525000
    27  C          0.95238190       0.42531100       0.72475000
    28  C          0.04761810       0.42531100       0.77525000
    29  C          0.54761810       0.07468900       0.27525000
    30  C          0.45238190       0.07468900       0.22475000
    31  C          0.04761810       0.57468900       0.27525000
    32  C          0.95238190       0.57468900       0.22475000
    33  C          0.41432000       0.89351200       0.78655000
    34  C          0.58568000       0.89351200       0.71345000
    35  C          0.91432000       0.39351200       0.78655000
    36  C          0.08568000       0.39351200       0.71345000
    37  C          0.58568000       0.10648800       0.21345000
    38  C          0.41432000       0.10648800       0.28655000
    39  C          0.08568000       0.60648800       0.21345000
    40  C          0.91432000       0.60648800       0.28655000
    41  C          0.38302190       0.71961100       0.75875000
    42  C          0.61697810       0.71961100       0.74125000
    43  C          0.88302190       0.21961100       0.75875000
    44  C          0.11697810       0.21961100       0.74125000
    45  C          0.61697810       0.28038900       0.24125000
    46  C          0.38302190       0.28038900       0.25875000
    47  C          0.11697810       0.78038900       0.24125000
    48  C          0.88302190       0.78038900       0.25875000
    49  F          0.43127130       0.46107000       0.51593000
    50  F          0.56872870       0.46107000       0.98407000
    51  F          0.93127130       0.96107000       0.51593000
    52  F          0.06872870       0.96107000       0.98407000
    53  F          0.56872870       0.53893000       0.48407000
    54  F          0.43127130       0.53893000       0.01593000
    55  F          0.06872870       0.03893000       0.48407000
    56  F          0.93127130       0.03893000       0.01593000
    57  F          0.49210120       0.80177000       0.56753000
    58  F          0.50789880       0.80177000       0.93247000
    59  F          0.99210120       0.30177000       0.56753000
    60  F          0.00789880       0.30177000       0.93247000
    61  F          0.50789880       0.19823000       0.43247000
    62  F          0.49210120       0.19823000       0.06753000
    63  F          0.00789880       0.69823000       0.43247000
    64  F          0.99210120       0.69823000       0.06753000
    65  F          0.40825130       0.04028000       0.87463000
    66  F          0.59174870       0.04028000       0.62537000
    67  F          0.90825130       0.54028000       0.87463000
    68  F          0.09174870       0.54028000       0.62537000
    69  F          0.59174870       0.95972000       0.12537000
    70  F          0.40825130       0.95972000       0.37463000
    71  F          0.09174870       0.45972000       0.12537000
    72  F          0.90825130       0.45972000       0.37463000
    73  F          0.34654130       0.69908000       0.82093000
    74  F          0.65345870       0.69908000       0.67907000
    75  F          0.84654130       0.19908000       0.82093000
    76  F          0.15345870       0.19908000       0.67907000
    77  F          0.65345870       0.30092000       0.17907000
    78  F          0.34654130       0.30092000       0.32093000
    79  F          0.15345870       0.80092000       0.17907000
    80  F          0.84654130       0.80092000       0.32093000
    81  I          0.33986200       0.30524700       0.62448300
    82  I          0.66013800       0.30524700       0.87551700
    83  I          0.83986200       0.80524700       0.62448300
    84  I          0.16013800       0.80524700       0.87551700
    85  I          0.66013800       0.69475300       0.37551700
    86  I          0.33986200       0.69475300       0.12448300
    87  I          0.16013800       0.19475300       0.37551700
    88  I          0.83986200       0.19475300       0.12448300
    89  N          0.47853180       0.13699000       0.74195000
    90  N          0.52146820       0.13699000       0.75805000
    91  N          0.97853180       0.63699000       0.74195000
    92  N          0.02146820       0.63699000       0.75805000
    93  N          0.52146820       0.86301000       0.25805000
    94  N          0.47853180       0.86301000       0.24195000
    95  N          0.02146820       0.36301000       0.25805000
    96  N          0.97853180       0.36301000       0.24195000
    97  C          0.28412000       0.83428700       0.44747000
    98  C          0.71588000       0.83428700       0.05253000
    99  C          0.78412000       0.33428700       0.44747000
   100  C          0.21588000       0.33428700       0.05253000
   101  C          0.71588000       0.16571300       0.55253000
   102  C          0.28412000       0.16571300       0.94747000
   103  C          0.21588000       0.66571300       0.55253000
   104  C          0.78412000       0.66571300       0.94747000
   105  H          0.30781700       0.89101600       0.40686900
   106  H          0.69218300       0.89101600       0.09313100
   107  H          0.80781700       0.39101600       0.40686900
   108  H          0.19218300       0.39101600       0.09313100
   109  H          0.69218300       0.10898400       0.59313100
   110  H          0.30781700       0.10898400       0.90686900
   111  H          0.19218300       0.60898400       0.59313100
   112  H          0.80781700       0.60898400       0.90686900
   113  C          0.25692000       0.66048600       0.39956000
   114  C          0.74308000       0.66048600       0.10044000
   115  C          0.75692000       0.16048600       0.39956000
   116  C          0.24308000       0.16048600       0.10044000
   117  C          0.74308000       0.33951400       0.60044000
   118  C          0.25692000       0.33951400       0.89956000
   119  C          0.24308000       0.83951400       0.60044000
   120  C          0.75692000       0.83951400       0.89956000
   121  H          0.26310800       0.59957800       0.32814500
   122  H          0.73689200       0.59957800       0.17185500
   123  H          0.76310800       0.09957800       0.32814500
   124  H          0.23689200       0.09957800       0.17185500
   125  H          0.73689200       0.40042200       0.67185500
   126  H          0.26310800       0.40042200       0.82814500
   127  H          0.23689200       0.90042200       0.67185500
   128  H          0.76310800       0.90042200       0.82814500
   129  N          0.27819180       0.92579000       0.54945000
   130  N          0.72180820       0.92579000       0.95055000
   131  N          0.77819180       0.42579000       0.54945000
   132  N          0.22180820       0.42579000       0.95055000
   133  N          0.72180820       0.07421000       0.45055000
   134  N          0.27819180       0.07421000       0.04945000
   135  N          0.22180820       0.57421000       0.45055000
   136  N          0.77819180       0.57421000       0.04945000
