data_XAYLUH
_symmetry_space_group_name_H-M    'P1'
_symmetry_Int_Tables_number       1
loop_
_symmetry_equiv_pos_site_id
_symmetry_equiv_pos_as_xyz
1 x,y,z
_cell_length_a                   6.66995
_cell_length_b                   34.3083
_cell_length_c                   9.13781
_cell_angle_alpha                90.0
_cell_angle_beta                 102.6395
_cell_angle_gamma                90.0
loop_
_atom_site_label
_atom_site_type_symbol
_atom_site_fract_x
_atom_site_fract_y
_atom_site_fract_z
     1  I          0.37327400       0.28764200       0.56675300
     2  I          0.62672600       0.78764200       0.93324700
     3  I          0.62672600       0.71235800       0.43324700
     4  I          0.37327400       0.21235800       0.06675300
     5  I          0.74892600       0.19489200       0.81522300
     6  I          0.25107400       0.69489200       0.68477700
     7  I          0.25107400       0.80510800       0.18477700
     8  I          0.74892600       0.30510800       0.31522300
     9  I          0.81385500       0.36843200       0.91372300
    10  I          0.18614500       0.86843200       0.58627700
    11  I          0.18614500       0.63156800       0.08627700
    12  I          0.81385500       0.13156800       0.41372300
    13  F          0.11694000       0.21727700       0.65803000
    14  F          0.88306000       0.71727700       0.84197000
    15  F          0.88306000       0.78272300       0.34197000
    16  F          0.11694000       0.28272300       0.15803000
    17  F          0.68836000       0.28037800       0.92723000
    18  F          0.31164000       0.78037800       0.57277000
    19  F          0.31164000       0.71962200       0.07277000
    20  F          0.68836000       0.21962200       0.42723000
    21  F          0.16194000       0.35295800       0.72773000
    22  F          0.83806000       0.85295800       0.77227000
    23  F          0.83806000       0.64704200       0.27227000
    24  F          0.16194000       0.14704200       0.22773000
    25  C          0.14536000       0.28480130       0.69125000
    26  C          0.85464000       0.78480130       0.80875000
    27  C          0.85464000       0.71519870       0.30875000
    28  C          0.14536000       0.21519870       0.19125000
    29  C          0.07626000       0.31842120       0.74995000
    30  C          0.92374000       0.81842120       0.75005000
    31  C          0.92374000       0.68157880       0.25005000
    32  C          0.07626000       0.18157880       0.24995000
    33  C          0.92254000       0.31782130       0.82895000
    34  C          0.07746000       0.81782130       0.67105000
    35  C          0.07746000       0.68217870       0.17105000
    36  C          0.92254000       0.18217870       0.32895000
    37  C          0.83704000       0.28194120       0.84885000
    38  C          0.16296000       0.78194120       0.65115000
    39  C          0.16296000       0.71805880       0.15115000
    40  C          0.83704000       0.21805880       0.34885000
    41  C          0.89734000       0.24766120       0.79154000
    42  C          0.10266000       0.74766120       0.70846000
    43  C          0.10266000       0.75233880       0.20846000
    44  C          0.89734000       0.25233880       0.29154000
    45  C          0.05316000       0.25001130       0.71455000
    46  C          0.94684000       0.75001130       0.78545000
    47  C          0.94684000       0.74998870       0.28545000
    48  C          0.05316000       0.24998870       0.21455000
    49  N          0.49064000       0.62670110       0.64455000
    50  N          0.50936000       0.12670110       0.85545000
    51  N          0.50936000       0.37329890       0.35545000
    52  N          0.49064000       0.87329890       0.14455000
    53  N          0.60567000       0.43251120       0.03025000
    54  N          0.39433000       0.93251120       0.46975000
    55  N          0.39433000       0.56748880       0.96975000
    56  N          0.60567000       0.06748880       0.53025000
    57  C          0.42253000       0.60686150       0.51786000
    58  C          0.57747000       0.10686150       0.98214000
    59  C          0.57747000       0.39313850       0.48214000
    60  C          0.42253000       0.89313850       0.01786000
    61  H          0.28310000       0.60770000       0.47370000
    62  H          0.71690000       0.10770000       0.02630000
    63  H          0.71690000       0.39230000       0.52630000
    64  H          0.28310000       0.89230000       0.97370000
    65  C          0.55033000       0.58499140       0.44916000
    66  C          0.44967000       0.08499140       0.05084000
    67  C          0.44967000       0.41500860       0.55084000
    68  C          0.55033000       0.91500860       0.94916000
    69  H          0.49690000       0.57120000       0.36160000
    70  H          0.50310000       0.07120000       0.13840000
    71  H          0.50310000       0.42880000       0.63840000
    72  H          0.49690000       0.92880000       0.86160000
    73  C          0.75903000       0.58396120       0.51245000
    74  C          0.24097000       0.08396120      -0.01245000
    75  C          0.24097000       0.41603880       0.48755000
    76  C          0.75903000       0.91603880       0.01245000
    77  C          0.83253000       0.60527140       0.64206000
    78  C          0.16747000       0.10527140       0.85794000
    79  C          0.16747000       0.39472860       0.35794000
    80  C          0.83253000       0.89472860       0.14206000
    81  H          0.97200000       0.60570000       0.68650000
    82  H          0.02800000       0.10570000       0.81350000
    83  H          0.02800000       0.39430000       0.31350000
    84  H          0.97200000       0.89430000       0.18650000
    85  C          0.69192000       0.62596140       0.70356000
    86  C          0.30808000       0.12596140       0.79644000
    87  C          0.30808000       0.37403860       0.29644000
    88  C          0.69192000       0.87403860       0.20356000
    89  H          0.74100000       0.64010000       0.79090000
    90  H          0.25900000       0.14010000       0.70910000
    91  H          0.25900000       0.35990000       0.20910000
    92  H          0.74100000       0.85990000       0.29090000
    93  C          0.89503000       0.56124140       0.44316000
    94  C          0.10497000       0.06124140       0.05684000
    95  C          0.10497000       0.43875860       0.55684000
    96  C          0.89503000       0.93875860       0.94316000
    97  C          0.00017000       0.54198140       0.38126000
    98  C         -0.00017000       0.04198140       0.11874000
    99  C         -0.00017000       0.45801860       0.61874000
   100  C          0.00017000       0.95801860       0.88126000
   101  C          0.12167000       0.51920150       0.31096000
   102  C          0.87833000       0.01920150       0.18904000
   103  C          0.87833000       0.48079850       0.68904000
   104  C          0.12167000       0.98079850       0.81096000
   105  C          0.22567000       0.49989140       0.24636000
   106  C          0.77433000      -0.00010860       0.25364000
   107  C          0.77433000       0.50010860       0.75364000
   108  C          0.22567000       0.00010860       0.74636000
   109  C          0.35297000       0.47692130       0.17245000
   110  C          0.64703000       0.97692130       0.32755000
   111  C          0.64703000       0.52307870       0.82755000
   112  C          0.35297000       0.02307870       0.67245000
   113  C          0.27128000       0.45408160       0.04786000
   114  C          0.72872000       0.95408160       0.45214000
   115  C          0.72872000       0.54591840       0.95214000
   116  C          0.27128000       0.04591840       0.54786000
   117  H          0.13010000       0.45340000       0.00920000
   118  H          0.86990000       0.95340000       0.49080000
   119  H          0.86990000       0.54660000      -0.00920000
   120  H          0.13010000       0.04660000       0.50920000
   121  C          0.40169000       0.43258160       0.98264000
   122  C          0.59831000       0.93258160       0.51736000
   123  C          0.59831000       0.56741840       0.01736000
   124  C          0.40169000       0.06741840       0.48264000
   125  H          0.34450000       0.41710000       0.90050000
   126  H          0.65550000       0.91710000       0.59950000
   127  H          0.65550000       0.58290000       0.09950000
   128  H          0.34450000       0.08290000       0.40050000
   129  C          0.68268000       0.45409150       0.14947000
   130  C          0.31732000       0.95409150       0.35053000
   131  C          0.31732000       0.54590850       0.85053000
   132  C          0.68268000       0.04590850       0.64947000
   133  H          0.82450000       0.45430000       0.18410000
   134  H          0.17550000       0.95430000       0.31590000
   135  H          0.17550000       0.54570000       0.81590000
   136  H          0.82450000       0.04570000       0.68410000
   137  C          0.56538000       0.47644150       0.22577000
   138  C          0.43462000       0.97644150       0.27423000
   139  C          0.43462000       0.52355850       0.77423000
   140  C          0.56538000       0.02355850       0.72577000
   141  H          0.62680000       0.49070000       0.31010000
   142  H          0.37320000       0.99070000       0.18990000
   143  H          0.37320000       0.50930000       0.68990000
   144  H          0.62680000       0.00930000       0.81010000
