data_XAZCUY
_symmetry_space_group_name_H-M    'P1'
_symmetry_Int_Tables_number       1
loop_
_symmetry_equiv_pos_site_id
_symmetry_equiv_pos_as_xyz
1 x,y,z
_cell_length_a                   17.45832
_cell_length_b                   7.416201
_cell_length_c                   16.96222
_cell_angle_alpha                90.0
_cell_angle_beta                 116.2552
_cell_angle_gamma                90.0
loop_
_atom_site_label
_atom_site_type_symbol
_atom_site_fract_x
_atom_site_fract_y
_atom_site_fract_z
     1  S          0.22271300       0.11157500       0.05242300
     2  S          0.77728700       0.61157500       0.44757700
     3  S          0.77728700       0.88842500       0.94757700
     4  S          0.22271300       0.38842500       0.55242300
     5  O          0.09818800       0.61043160       0.71885700
     6  O          0.90181200       0.11043160       0.78114300
     7  O          0.90181200       0.38956840       0.28114300
     8  O          0.09818800       0.88956840       0.21885700
     9  N          0.28104900       0.32274180       0.20227900
    10  N          0.71895100       0.82274180       0.29772100
    11  N          0.71895100       0.67725820       0.79772100
    12  N          0.28104900       0.17725820       0.70227900
    13  N          0.29844800       0.02492180       0.22301800
    14  N          0.70155200       0.52492180       0.27698200
    15  N          0.70155200       0.97507820       0.77698200
    16  N          0.29844800       0.47507820       0.72301800
    17  H          0.29580000       0.91200000       0.21050000
    18  H          0.70420000       0.41200000       0.28950000
    19  H          0.70420000       0.08800000       0.78950000
    20  H          0.29580000       0.58800000       0.71050000
    21  N          0.14436100       0.16002000       0.87641900
    22  N          0.85563900       0.66002000       0.62358100
    23  N          0.85563900       0.83998000       0.12358100
    24  N          0.14436100       0.33998000       0.37641900
    25  F          0.13495900       0.83592000       0.61276110
    26  F          0.86504100       0.33592000       0.88723890
    27  F          0.86504100       0.16408000       0.38723890
    28  F          0.13495900       0.66408000       0.11276110
    29  F          0.01560800       0.89596150       0.61011800
    30  F          0.98439200       0.39596150       0.88988200
    31  F          0.98439200       0.10403850       0.38988200
    32  F          0.01560800       0.60403850       0.11011800
    33  F          0.02040110       0.76215190       0.50116800
    34  F          0.97959890       0.26215190      -0.00116800
    35  F          0.97959890       0.23784810       0.49883200
    36  F          0.02040110       0.73784810       0.00116800
    37  C          0.26983100       0.16372000       0.16472100
    38  C          0.73016900       0.66372000       0.33527900
    39  C          0.73016900       0.83628000       0.83527900
    40  C          0.26983100       0.33628000       0.66472100
    41  C          0.32070100       0.28572000       0.29233110
    42  C          0.67929900       0.78572000       0.20766890
    43  C          0.67929900       0.71428000       0.70766890
    44  C          0.32070100       0.21428000       0.79233110
    45  C          0.34706130       0.40143000       0.36387130
    46  C          0.65293870       0.90143000       0.13612870
    47  C          0.65293870       0.59857000       0.63612870
    48  C          0.34706130       0.09857000       0.86387130
    49  H          0.33840000       0.52510000       0.35610000
    50  H          0.66160000       0.02510000       0.14390000
    51  H          0.66160000       0.47490000       0.64390000
    52  H          0.33840000       0.97490000       0.85610000
    53  C          0.38645140       0.32743000       0.44666130
    54  C          0.61354860       0.82743000       0.05333870
    55  C          0.61354860       0.67257000       0.55333870
    56  C          0.38645140       0.17257000       0.94666130
    57  H          0.40480000       0.40290000       0.49540000
    58  H          0.59520000       0.90290000       0.00460000
    59  H          0.59520000       0.59710000       0.50460000
    60  H          0.40480000       0.09710000      -0.00460000
    61  C          0.39947130       0.14293000       0.45925130
    62  C          0.60052870       0.64293000       0.04074870
    63  C          0.60052870       0.85707000       0.54074870
    64  C          0.39947130       0.35707000       0.95925130
    65  H          0.42720000       0.09790000       0.51620000
    66  H          0.57280000       0.59790000       0.98380000
    67  H          0.57280000       0.90210000       0.48380000
    68  H          0.42720000       0.40210000       0.01620000
    69  C          0.37235110       0.02533000       0.38953110
    70  C          0.62764890       0.52533000       0.11046890
    71  C          0.62764890       0.97467000       0.61046890
    72  C          0.37235110       0.47467000       0.88953110
    73  H          0.38030000       0.90150000       0.39800000
    74  H          0.61970000       0.40150000       0.10200000
    75  H          0.61970000       0.09850000       0.60200000
    76  H          0.38030000       0.59850000       0.89800000
    77  C          0.33245100       0.09972000       0.30578110
    78  C          0.66754900       0.59972000       0.19421890
    79  C          0.66754900       0.90028000       0.69421890
    80  C          0.33245100       0.40028000       0.80578110
    81  C          0.20875110       0.33772000       0.00826110
    82  C          0.79124890       0.83772000       0.49173890
    83  C          0.79124890       0.66228000      -0.00826110
    84  C          0.20875110       0.16228000       0.50826110
    85  H          0.17360000       0.40760000       0.02810000
    86  H          0.82640000       0.90760000       0.47190000
    87  H          0.82640000       0.59240000       0.97190000
    88  H          0.17360000       0.09240000       0.52810000
    89  H          0.26380000       0.39690000       0.02850000
    90  H          0.73620000       0.89690000       0.47150000
    91  H          0.73620000       0.60310000       0.97150000
    92  H          0.26380000       0.10310000       0.52850000
    93  C          0.16630100       0.32612000       0.90919100
    94  C          0.83369900       0.82612000       0.59080900
    95  C          0.83369900       0.67388000       0.09080900
    96  C          0.16630100       0.17388000       0.40919100
    97  C          0.15158100       0.48122000       0.85880100
    98  C          0.84841900      -0.01878000       0.64119900
    99  C          0.84841900       0.51878000       0.14119900
   100  C          0.15158100       0.01878000       0.35880100
   101  C          0.11201100       0.45682000       0.76766100
   102  C          0.88798900       0.95682000       0.73233900
   103  C          0.88798900       0.54318000       0.23233900
   104  C          0.11201100       0.04318000       0.26766100
   105  C          0.08915120       0.28622000       0.73202110
   106  C          0.91084880       0.78622000       0.76797890
   107  C          0.91084880       0.71378000       0.26797890
   108  C          0.08915120       0.21378000       0.23202110
   109  H          0.06280000       0.26860000       0.67150000
   110  H          0.93720000       0.76860000       0.82850000
   111  H          0.93720000       0.73140000       0.32850000
   112  H          0.06280000       0.23140000       0.17150000
   113  C          0.10670130       0.14292000       0.78931120
   114  C          0.89329870       0.64292000       0.71068880
   115  C          0.89329870       0.85708000       0.21068880
   116  C          0.10670130       0.35708000       0.28931120
   117  H          0.09130000       0.02780000       0.76570000
   118  H          0.90870000       0.52780000       0.73430000
   119  H          0.90870000       0.97220000       0.23430000
   120  H          0.09130000       0.47220000       0.26570000
   121  C          0.05724120       0.59172000       0.62635110
   122  C          0.94275880       0.09172000       0.87364890
   123  C          0.94275880       0.40828000       0.37364890
   124  C          0.05724120       0.90828000       0.12635110
   125  H         -0.00100000       0.55000000       0.60700000
   126  H          0.00100000       0.05000000       0.89300000
   127  H          0.00100000       0.45000000       0.39300000
   128  H         -0.00100000       0.95000000       0.10700000
   129  H          0.08750000       0.50510000       0.60760000
   130  H          0.91250000       0.00510000       0.89240000
   131  H          0.91250000       0.49490000       0.39240000
   132  H          0.08750000      -0.00510000       0.10760000
   133  C          0.05779110       0.77213000       0.58855110
   134  C          0.94220890       0.27213000       0.91144890
   135  C          0.94220890       0.22787000       0.41144890
   136  C          0.05779110       0.72787000       0.08855110
   137  C          0.17477130       0.66693000       0.89758120
   138  C          0.82522870       0.16693000       0.60241880
   139  C          0.82522870       0.33307000       0.10241880
   140  C          0.17477130       0.83307000       0.39758120
   141  H          0.15920000       0.75390000       0.85110000
   142  H          0.84080000       0.25390000       0.64890000
   143  H          0.84080000       0.24610000       0.14890000
   144  H          0.15920000       0.74610000       0.35110000
   145  H          0.23520000       0.67300000       0.93440000
   146  H          0.76480000       0.17300000       0.56560000
   147  H          0.76480000       0.32700000       0.06560000
   148  H          0.23520000       0.82700000       0.43440000
   149  H          0.14480000       0.69240000       0.93200000
   150  H          0.85520000       0.19240000       0.56800000
   151  H          0.85520000       0.30760000       0.06800000
   152  H          0.14480000       0.80760000       0.43200000
   153  O          0.32047800       0.67645160       0.17242100
   154  O          0.67952200       0.17645160       0.32757900
   155  O          0.67952200       0.32354840       0.82757900
   156  O          0.32047800       0.82354840       0.67242100
   157  H          0.30160000       0.58010000       0.18000000
   158  H          0.69840000       0.08010000       0.32000000
   159  H          0.69840000       0.41990000       0.82000000
   160  H          0.30160000       0.91990000       0.68000000
   161  C          0.47122130       0.69304000       0.26857170
   162  C          0.52877870       0.19304000       0.23142830
   163  C          0.52877870       0.30696000       0.73142830
   164  C          0.47122130       0.80696000       0.76857170
   165  H          0.46390000       0.61670000       0.31040000
   166  H          0.53610000       0.11670000       0.18960000
   167  H          0.53610000       0.38330000       0.68960000
   168  H          0.46390000       0.88330000       0.81040000
   169  H          0.46580000       0.81690000       0.28160000
   170  H          0.53420000       0.31690000       0.21840000
   171  H          0.53420000       0.18310000       0.71840000
   172  H          0.46580000       0.68310000       0.78160000
   173  H          0.52690000       0.67340000       0.27170000
   174  H          0.47310000       0.17340000       0.22830000
   175  H          0.47310000       0.32660000       0.72830000
   176  H          0.52690000       0.82660000       0.77170000
   177  C          0.40380120       0.64873000       0.17709150
   178  C          0.59619880       0.14873000       0.32290850
   179  C          0.59619880       0.35127000       0.82290850
   180  C          0.40380120       0.85127000       0.67709150
   181  H          0.40950000       0.52170000       0.16460000
   182  H          0.59050000       0.02170000       0.33540000
   183  H          0.59050000       0.47830000       0.83540000
   184  H          0.40950000       0.97830000       0.66460000
   185  C          0.41146150       0.76334000       0.10808170
   186  C          0.58853850       0.26334000       0.39191830
   187  C          0.58853850       0.23666000       0.89191830
   188  C          0.41146150       0.73666000       0.60808170
   189  H          0.36730000       0.73110000       0.05130000
   190  H          0.63270000       0.23110000       0.44870000
   191  H          0.63270000       0.26890000       0.94870000
   192  H          0.36730000       0.76890000       0.55130000
   193  H          0.46630000       0.74400000       0.10920000
   194  H          0.53370000       0.24400000       0.39080000
   195  H          0.53370000       0.25600000       0.89080000
   196  H          0.46630000       0.75600000       0.60920000
   197  H          0.40570000       0.88800000       0.11960000
   198  H          0.59430000       0.38800000       0.38040000
   199  H          0.59430000       0.11200000       0.88040000
   200  H          0.40570000       0.61200000       0.61960000
