data_XEBJIA
_symmetry_space_group_name_H-M    'P1'
_symmetry_Int_Tables_number       1
loop_
_symmetry_equiv_pos_site_id
_symmetry_equiv_pos_as_xyz
1 x,y,z
_cell_length_a                   10.4062
_cell_length_b                   7.809214
_cell_length_c                   26.7175
_cell_angle_alpha                90.0
_cell_angle_beta                 92.902
_cell_angle_gamma                90.0
loop_
_atom_site_label
_atom_site_type_symbol
_atom_site_fract_x
_atom_site_fract_y
_atom_site_fract_z
     1  I          0.70090011       0.84979314       0.50326130
     2  I          0.29909989       0.34979314       0.49673870
     3  I          0.77336390       0.80261212       0.62818530
     4  I          0.22663610       0.30261212       0.37181470
     5  F          0.63773900       0.72914170       0.81741400
     6  F          0.36226100       0.22914170       0.18258600
     7  F          0.59509900       0.74071160       0.71962400
     8  F          0.40490100       0.24071160       0.28037600
     9  F          0.04039800       0.80461160       0.69783300
    10  F          0.95960200       0.30461160       0.30216700
    11  F          0.08610900       0.78631160       0.79609300
    12  F          0.91389100       0.28631160       0.20390700
    13  N          0.90036120       0.75832180       0.86299400
    14  N          0.09963880       0.25832180       0.13700600
    15  N          0.82316130       0.67724170       0.88957400
    16  N          0.17683870       0.17724170       0.11042600
    17  N          0.91463130       0.67616180       0.09746500
    18  N          0.08536870       0.17616180       0.90253500
    19  C          0.73986140       0.74272000       0.78934500
    20  C          0.26013860       0.24272000       0.21065500
    21  C          0.71738140       0.75272000       0.73797500
    22  C          0.28261860       0.25272000       0.26202500
    23  C          0.81521140       0.77541190       0.70554500
    24  C          0.18478860       0.27541190       0.29445500
    25  C          0.93966140       0.78532000       0.72680500
    26  C          0.06033860       0.28532000       0.27319500
    27  C          0.96339140       0.77602000       0.77809500
    28  C          0.03660860       0.27602000       0.22190500
    29  C          0.86509140       0.75392000       0.81125500
    30  C          0.13490860       0.25392000       0.18874500
    31  C          0.85224140       0.68390190       0.94126500
    32  C          0.14775860       0.18390190       0.05873500
    33  C          0.77124140       0.59152000       0.97133500
    34  C          0.22875860       0.09152000       0.02866500
    35  H          0.70140000       0.52890000       0.95610000
    36  H          0.29860000       0.02890000       0.04390000
    37  C          0.79039140       0.58902000       0.02276500
    38  C          0.20960860       0.08902000       0.97723500
    39  H          0.73360000       0.52520000       0.04240000
    40  H          0.26640000       0.02520000       0.95760000
    41  C          0.89404130       0.68067180       0.04680500
    42  C          0.10595870       0.18067180       0.95319500
    43  C          0.97508140       0.77592000       0.01571500
    44  C          0.02491860       0.27592000       0.98428500
    45  H          0.04480000       0.83940000       0.03070000
    46  H          0.95520000       0.33940000       0.96930000
    47  C          0.95447140       0.77782000       0.96447500
    48  C          0.04552860       0.27782000       0.03552500
    49  H          0.00960000       0.84290000       0.94450000
    50  H         -0.00960000       0.34290000       0.05550000
    51  C          0.82494180       0.58492000       0.12803600
    52  C          0.17505820       0.08492000       0.87196400
    53  H          0.82330000       0.46360000       0.11870000
    54  H          0.17670000       0.96360000       0.88130000
    55  H          0.73860000       0.63370000       0.12250000
    56  H          0.26140000       0.13370000       0.87750000
    57  H          0.85260000       0.59610000       0.16350000
    58  H          0.14740000       0.09610000       0.83650000
    59  C          0.01896160       0.77053000       0.12334600
    60  C          0.98103840       0.27053000       0.87665400
    61  H         -0.00540000       0.89120000       0.12620000
    62  H          0.00540000       0.39120000       0.87380000
    63  H          0.09680000       0.76140000       0.10430000
    64  H          0.90320000       0.26140000       0.89570000
    65  H          0.03570000       0.72220000       0.15690000
    66  H          0.96430000       0.22220000       0.84310000
    67  I          0.54233811       0.70569713       0.39298530
    68  I          0.45766189       0.20569713       0.60701470
    69  F          0.59211100       0.48983150       0.20417400
    70  F          0.40788900      -0.01016850       0.79582600
    71  F          0.65878110       0.50234150       0.30120400
    72  F          0.34121890       0.00234150       0.69879600
    73  F          0.28900110       0.83565190       0.32919400
    74  F          0.71099890       0.33565190       0.67080600
    75  F          0.21830100       0.81392000       0.23173400
    76  F          0.78169900       0.31392000       0.76826600
    77  N          0.35972130       0.64462000       0.16356500
    78  N          0.64027870       0.14462000       0.83643500
    79  N          0.44485120       0.69686190       0.13513400
    80  N          0.55514880       0.19686190       0.86486600
    81  N          0.33699120       0.68235180       0.92811600
    82  N          0.66300880       0.18235180       0.07188400
    83  C          0.51593160       0.57622000       0.23417500
    84  C          0.48406840       0.07622000       0.76582500
    85  C          0.54990160       0.58262000       0.28505600
    86  C          0.45009840       0.08262000       0.71494400
    87  C          0.47601160       0.66912000       0.31827500
    88  C          0.52398840       0.16912000       0.68172500
    89  C          0.36362170       0.74543000       0.29913600
    90  C          0.63637830       0.24543000       0.70086400
    91  C          0.32698160       0.73572000       0.24864600
    92  C          0.67301840       0.23572000       0.75135400
    93  C          0.40354150       0.65402000       0.21489500
    94  C          0.59645850       0.15402000       0.78510500
    95  C          0.41119130       0.68542000       0.08374500
    96  C          0.58880870       0.18542000       0.91625500
    97  C          0.49319140       0.76822000       0.05189500
    98  C          0.50680860       0.26822000       0.94810500
    99  H          0.56660000       0.82670000       0.06590000
   100  H          0.43340000       0.32670000       0.93410000
   101  C          0.47040140       0.76742000       0.00062500
   102  C          0.52959860       0.26742000      -0.00062500
   103  H          0.52780000       0.82510000       0.97990000
   104  H          0.47220000       0.32510000       0.02010000
   105  C          0.36201130       0.68095180       0.97869500
   106  C          0.63798870       0.18095180       0.02130500
   107  C          0.28057140       0.59352000       0.01120500
   108  C          0.71942860       0.09352000       0.98879500
   109  H          0.20840000       0.53200000      -0.00260000
   110  H          0.79160000       0.03200000       0.00260000
   111  C          0.30422110       0.59625160       0.06244400
   112  C          0.69577890       0.09625160       0.93755600
   113  H          0.24800000       0.53760000       0.08350000
   114  H          0.75200000       0.03760000       0.91650000
   115  C          0.43226110       0.75119160       0.89525600
   116  C          0.56773890       0.25119160       0.10474400
   117  H          0.51150000       0.68360000       0.89900000
   118  H          0.48850000       0.18360000       0.10100000
   119  H          0.45080000       0.87060000       0.90430000
   120  H          0.54920000       0.37060000       0.09570000
   121  H          0.39840000       0.74560000       0.86040000
   122  H          0.60160000       0.24560000       0.13960000
   123  C          0.23124150       0.58442000       0.90483400
   124  C          0.76875850       0.08442000       0.09516600
   125  H          0.15340000       0.60340000       0.92320000
   126  H          0.84660000       0.10340000       0.07680000
   127  H          0.25310000       0.46230000       0.90560000
   128  H          0.74690000       0.96230000       0.09440000
   129  H          0.21600000       0.62150000       0.87000000
   130  H          0.78400000       0.12150000       0.13000000
   131  N          0.70518130       0.27544180       0.42897500
   132  N          0.29481870       0.77544180       0.57102500
   133  N          0.83047150       0.36402190       0.48983500
   134  N          0.16952850       0.86402190       0.51016500
   135  C          0.71000160       0.32592000       0.47621600
   136  C          0.28999840       0.82592000       0.52378400
   137  H          0.63870000       0.33360000       0.49700000
   138  H          0.36130000       0.83360000       0.50300000
   139  C          0.82733180       0.28133000       0.41162700
   140  C          0.17266820       0.78133000       0.58837300
   141  H          0.85180000       0.25220000       0.37890000
   142  H          0.14820000       0.75220000       0.62110000
   143  C          0.90590170       0.33652000       0.45026700
   144  C          0.09409830       0.83652000       0.54973300
   145  H         -0.00370000       0.35300000       0.44990000
   146  H          0.00370000       0.85300000       0.55010000
   147  C          0.59017190       0.21503000       0.40055800
   148  C          0.40982810       0.71503000       0.59944200
   149  H          0.58240000       0.27440000       0.36820000
   150  H          0.41760000       0.77440000       0.63180000
   151  H          0.51390000       0.23870000       0.41950000
   152  H          0.48610000       0.73870000       0.58050000
   153  H          0.59710000       0.09140000       0.39490000
   154  H          0.40290000       0.59140000       0.60510000
   155  C          0.87802000       0.42163000       0.53971700
   156  C          0.12198000       0.92163000       0.46028300
   157  H          0.80620000       0.47470000       0.55710000
   158  H          0.19380000       0.97470000       0.44290000
   159  H          0.94470000       0.51040000       0.53580000
   160  H          0.05530000       0.01040000       0.46420000
   161  C          0.93379180       0.27932000       0.57143600
   162  C          0.06620820       0.77932000       0.42856400
   163  H          0.00170000       0.22060000       0.55320000
   164  H         -0.00170000       0.72060000       0.44680000
   165  H          0.86560000       0.19460000       0.57770000
   166  H          0.13440000       0.69460000       0.42230000
   167  C         -0.00889830       0.34612000       0.62146600
   168  C          0.00889830       0.84612000       0.37853400
   169  H          0.06650000       0.41890000       0.61520000
   170  H          0.93350000       0.91890000       0.38480000
   171  H          0.92650000       0.41850000       0.63730000
   172  H          0.07350000       0.91850000       0.36270000
   173  C          0.03252000       0.20333000       0.65730700
   174  C          0.96748000       0.70333000       0.34269300
   175  H          0.10470000       0.14030000       0.64310000
   176  H          0.89530000       0.64030000       0.35690000
   177  H          0.96000000       0.12210000       0.65970000
   178  H          0.04000000       0.62210000       0.34030000
   179  C          0.07427180       0.26333000       0.70983700
   180  C          0.92572820       0.76333000       0.29016300
   181  H          0.09670000       0.16200000       0.73070000
   182  H          0.90330000       0.66200000       0.26930000
   183  H          0.00080000       0.32140000       0.72480000
   184  H         -0.00080000       0.82140000       0.27520000
   185  C          0.18873160       0.38512000       0.71144600
   186  C          0.81126840       0.88512000       0.28855400
   187  H          0.25510000       0.33900000       0.68980000
   188  H          0.74490000       0.83900000       0.31020000
   189  H          0.16050000       0.49720000       0.69750000
   190  H          0.83950000      -0.00280000       0.30250000
   191  C          0.24854170       0.41233000       0.76398700
   192  C          0.75145830       0.91233000       0.23601300
   193  H          0.18310000       0.46210000       0.78530000
   194  H          0.81690000       0.96210000       0.21470000
   195  H          0.27440000       0.29990000       0.77840000
   196  H          0.72560000       0.79990000       0.22160000
   197  C          0.36502000       0.52923000       0.76499900
   198  C          0.63498000       0.02923000       0.23500100
   199  H          0.33750000       0.64610000       0.75640000
   200  H          0.66250000       0.14610000       0.24360000
   201  H          0.42540000       0.48880000       0.74060000
   202  H          0.57460000      -0.01120000       0.25940000
   203  H          0.40720000       0.52850000       0.79860000
   204  H          0.59280000       0.02850000       0.20140000
