data_XECPAZ
_symmetry_space_group_name_H-M    'P1'
_symmetry_Int_Tables_number       1
loop_
_symmetry_equiv_pos_site_id
_symmetry_equiv_pos_as_xyz
1 x,y,z
_cell_length_a                   5.069114
_cell_length_b                   8.0552
_cell_length_c                   19.7505
_cell_angle_alpha                93.95213
_cell_angle_beta                 93.44212
_cell_angle_gamma                105.93816
loop_
_atom_site_label
_atom_site_type_symbol
_atom_site_fract_x
_atom_site_fract_y
_atom_site_fract_z
     1  C          0.89657000       0.93074000       0.12428150
     2  C          0.10343000       0.06926000       0.87571850
     3  N          0.93656000       0.93964000       0.19353130
     4  N          0.06344000       0.06036000       0.80646870
     5  C          0.18957000       0.05325000       0.21162170
     6  C          0.81043000       0.94675000       0.78837830
     7  H          0.27640000       0.08500000       0.25640000
     8  H          0.72360000       0.91500000       0.74360000
     9  C          0.29278000       0.11185000       0.15304170
    10  C          0.70722000       0.88815000       0.84695830
    11  H          0.46560000       0.19430000       0.15030000
    12  H          0.53440000       0.80570000       0.84970000
    13  N          0.11026000       0.03414000       0.09839140
    14  N          0.88974000       0.96586000       0.90160860
    15  C          0.65608000       0.82005000       0.08497160
    16  C          0.34392000       0.17995000       0.91502840
    17  N          0.44987000       0.70805000       0.10874160
    18  N          0.55013000       0.29195000       0.89125840
    19  C          0.27261100       0.63798000       0.05322000
    20  C          0.72738900       0.36202000       0.94678000
    21  H          0.10110000       0.55290000       0.05420000
    22  H          0.89890000       0.44710000       0.94580000
    23  C          0.37541000       0.70658000      -0.00402000
    24  C          0.62459000       0.29342000       0.00402000
    25  H          0.29240000       0.67860000       0.95070000
    26  H          0.70760000       0.32140000       0.04930000
    27  H          0.73190000       0.88160000       0.99280000
    28  H          0.26810000       0.11840000       0.00720000
    29  N          0.62027000       0.82265000       0.01696150
    30  N          0.37973000       0.17735000       0.98303850
    31  C          0.74917000       0.85154000       0.24136150
    32  C          0.25083000       0.14846000       0.75863850
    33  H          0.55740000       0.83590000       0.22270000
    34  H          0.44260000       0.16410000       0.77730000
    35  H          0.77930000       0.92600000       0.28470000
    36  H          0.22070000       0.07400000       0.71530000
    37  C          0.78397000       0.67664000       0.25590150
    38  C          0.21603000       0.32336000       0.74409850
    39  N          0.64606000       0.61014000       0.30806130
    40  N          0.35394000       0.38986000       0.69193870
    41  C          0.66668000       0.45655000       0.32492180
    42  C          0.33332000       0.54345000       0.67507820
    43  H          0.56920000       0.40760000       0.36170000
    44  H          0.43080000       0.59240000       0.63830000
    45  C          0.82228000       0.36405000       0.29176190
    46  C          0.17772000       0.63595000       0.70823810
    47  H          0.83140000       0.25490000       0.30550000
    48  H          0.16860000       0.74510000       0.69450000
    49  C         -0.03642000       0.43505000       0.23814190
    50  C          0.03642000       0.56495000       0.76185810
    51  H          0.07250000       0.37540000       0.21430000
    52  H          0.92750000       0.62460000       0.78570000
    53  C          0.94417000       0.59385000       0.21963160
    54  C          0.05583000       0.40615000       0.78036840
    55  H          0.03850000       0.64510000       0.18280000
    56  H          0.96150000       0.35490000       0.81720000
    57  C          0.14627000       0.91314000       0.45820150
    58  C          0.85373000       0.08686000       0.54179850
    59  C          0.09907000       0.06535000       0.44266150
    60  C          0.90093000       0.93465000       0.55733850
    61  C          0.04407000       0.84715000       0.51703160
    62  C          0.95593000       0.15285000       0.48296840
    63  I          0.35814400       0.78259300       0.39475200
    64  I          0.64185600       0.21740700       0.60524800
    65  F          0.19115000       0.13613000       0.38509100
    66  F          0.80885000       0.86387000       0.61490900
    67  F          0.08325000       0.69993000       0.53605100
    68  F          0.91675000       0.30007000       0.46394900
