data_XECQAA
_symmetry_space_group_name_H-M    'P1'
_symmetry_Int_Tables_number       1
loop_
_symmetry_equiv_pos_site_id
_symmetry_equiv_pos_as_xyz
1 x,y,z
_cell_length_a                   5.07169
_cell_length_b                   11.3142
_cell_length_c                   14.0513
_cell_angle_alpha                90.8187
_cell_angle_beta                 99.1906
_cell_angle_gamma                99.9256
loop_
_atom_site_label
_atom_site_type_symbol
_atom_site_fract_x
_atom_site_fract_y
_atom_site_fract_z
     1  N         -0.00624840       0.22301700       0.41471600
     2  N          0.00624840       0.77698300       0.58528400
     3  C          0.79326190       0.23753800       0.34321700
     4  C          0.20673810       0.76246200       0.65678300
     5  N          0.77927170       0.15451800       0.27328600
     6  N          0.22072830       0.84548200       0.72671400
     7  H          0.63930000       0.13611200       0.21181000
     8  H          0.36070000       0.86388800       0.78819000
     9  C         -0.02588000       0.08581900       0.30080700
    10  C          0.02588000       0.91418100       0.69919300
    11  H          0.00890000       0.02050000       0.26430000
    12  H         -0.00890000       0.97950000       0.73570000
    13  C          0.10792000       0.12776900       0.38927700
    14  C          0.89208000       0.87223100       0.61072300
    15  H          0.25280000       0.09730000       0.42660000
    16  H          0.74720000       0.90270000       0.57340000
    17  N          0.43775170       0.34136800       0.26346600
    18  N          0.56224830       0.65863200       0.73653400
    19  H          0.39130000       0.29571300       0.20401000
    20  H          0.60870000       0.70428700       0.79599000
    21  C          0.62555190       0.32800800       0.34053700
    22  C          0.37444810       0.67199200       0.65946300
    23  N          0.63209170       0.40681800       0.41214600
    24  N          0.36790830       0.59318200       0.58785400
    25  C          0.43962000       0.47365900       0.37809700
    26  C          0.56038000       0.52634100       0.62190300
    27  H          0.39680000       0.53830000       0.41300000
    28  H          0.60320000       0.46170000       0.58700000
    29  C          0.31742000       0.43411900       0.28651700
    30  C          0.68258000       0.56588100       0.71348300
    31  H          0.17700000       0.46510000       0.24710000
    32  H          0.82300000       0.53490000       0.75290000
    33  N          0.70753180       0.15447800       0.56006600
    34  N          0.29246820       0.84552200       0.43993400
    35  C          0.91506190       0.24470900       0.58347700
    36  C          0.08493810       0.75529100       0.41652300
    37  C         -0.01048000       0.29935110       0.67552800
    38  C          0.01048000       0.70064890       0.32447200
    39  H          0.13900000       0.36380000       0.68920000
    40  H          0.86100000       0.63620000       0.31080000
    41  C          0.84163000       0.25793110       0.74665800
    42  C          0.15837000       0.74206890       0.25334200
    43  H          0.88690000       0.29370000       0.81000000
    44  H          0.11310000       0.70630000       0.19000000
    45  C          0.62642000       0.16336110       0.72375900
    46  C          0.37358000       0.83663890       0.27624100
    47  H          0.52200000       0.13230000       0.77120000
    48  H          0.47800000       0.86770000       0.22880000
    49  C          0.56702000       0.11532110       0.63056800
    50  C          0.43298000       0.88467890       0.36943200
    51  H          0.41830000       0.05080000       0.61510000
    52  H          0.58170000       0.94920000       0.38490000
    53  C          0.07878190       0.29104900       0.50664700
    54  C          0.92121810       0.70895100       0.49335300
    55  H          0.06260000       0.37600000       0.49630000
    56  H          0.93740000       0.62400000       0.50370000
    57  H          0.27240000       0.28830000       0.53000000
    58  H          0.72760000       0.71170000       0.47000000
    59  C          0.26992000       0.12151100       0.07240700
    60  C          0.73008000       0.87848900       0.92759300
    61  O          0.44152000       0.07211800       0.12367600
    62  O          0.55848000       0.92788200       0.87632400
    63  O          0.22896170       0.22465800       0.09074600
    64  O          0.77103830       0.77534200       0.90925400
    65  C          0.10193000       0.04992110       0.98491200
    66  C          0.89807000       0.95007890       0.01508800
    67  H          0.00570000       0.10370000       0.94270000
    68  H         -0.00570000       0.89630000       0.05730000
    69  H          0.22270000       0.01550000       0.94770000
    70  H          0.77730000       0.98450000       0.05230000
    71  C          0.75458000       0.39482120       0.03366800
    72  C          0.24542000       0.60517880       0.96633200
    73  O          0.82298000       0.30416100       0.98900300
    74  O          0.17702000       0.69583900       0.01099700
    75  H          0.96160000       0.26991600       0.03191300
    76  H          0.03840000       0.73008400       0.96808700
    77  O          0.85608000       0.42961100       0.11478700
    78  O          0.14392000       0.57038900       0.88521300
    79  C          0.54168000       0.45018120       0.97297200
    80  C          0.45832000       0.54981880       0.02702800
    81  H          0.38060000       0.38750000       0.95110000
    82  H          0.61940000       0.61250000       0.04890000
    83  H          0.61220000       0.48250000       0.91500000
    84  H          0.38780000       0.51750000       0.08500000
