data_XECXOV
_symmetry_space_group_name_H-M    'P1'
_symmetry_Int_Tables_number       1
loop_
_symmetry_equiv_pos_site_id
_symmetry_equiv_pos_as_xyz
1 x,y,z
_cell_length_a                   14.04223
_cell_length_b                   5.946201
_cell_length_c                   20.49964
_cell_angle_alpha                90.0
_cell_angle_beta                 93.434711
_cell_angle_gamma                90.0
loop_
_atom_site_label
_atom_site_type_symbol
_atom_site_fract_x
_atom_site_fract_y
_atom_site_fract_z
     1  Br         0.22770200       0.83719500       0.71529200
     2  Br         0.77229800       0.33719500       0.78470800
     3  Br         0.77229800       0.16280500       0.28470800
     4  Br         0.22770200       0.66280500       0.21529200
     5  Br         0.22366200       0.78612500       0.56284200
     6  Br         0.77633800       0.28612500       0.93715800
     7  Br         0.77633800       0.21387500       0.43715800
     8  Br         0.22366200       0.71387500       0.06284200
     9  Br         0.34367200       0.44488500       0.65586200
    10  Br         0.65632800       0.94488500       0.84413800
    11  Br         0.65632800       0.55511500       0.34413800
    12  Br         0.34367200       0.05511500       0.15586200
    13  O          0.42813140       0.91264000       0.58424900
    14  O          0.57186860       0.41264000       0.91575100
    15  O          0.57186860       0.08736000       0.41575100
    16  O          0.42813140       0.58736000       0.08424900
    17  N          0.43273180      -0.02086000       0.69310110
    18  N          0.56726820       0.47914000       0.80689890
    19  N          0.56726820       0.02086000       0.30689890
    20  N          0.43273180       0.52086000       0.19310110
    21  H          0.41220000       0.96660000       0.72881600
    22  H          0.58780000       0.46660000       0.77118400
    23  H          0.58780000       0.03340000       0.27118400
    24  H          0.41220000       0.53340000       0.22881600
    25  H          0.48420000       0.05960000       0.69031500
    26  H          0.51580000       0.55960000       0.80968500
    27  H          0.51580000       0.94040000       0.30968500
    28  H          0.48420000       0.44040000       0.19031500
    29  C          0.30175190       0.75275000       0.64249120
    30  C          0.69824810       0.25275000       0.85750880
    31  C          0.69824810       0.24725000       0.35750880
    32  C          0.30175190       0.74725000       0.14249120
    33  C          0.39435190       0.89265000       0.63781130
    34  C          0.60564810       0.39265000       0.86218870
    35  C          0.60564810       0.10735000       0.36218870
    36  C          0.39435190       0.60735000       0.13781130
    37  Br         0.67320200       0.78655500       0.67204200
    38  Br         0.32679800       0.28655500       0.82795800
    39  Br         0.32679800       0.21344500       0.32795800
    40  Br         0.67320200       0.71344500       0.17204200
    41  Br         0.65946200       0.70855500       0.52083200
    42  Br         0.34053800       0.20855500       0.97916800
    43  Br         0.34053800       0.29144500       0.47916800
    44  Br         0.65946200       0.79144500       0.02083200
    45  Br         0.80376200       0.41486500       0.61098200
    46  Br         0.19623800       0.91486500       0.88901800
    47  Br         0.19623800       0.58513500       0.38901800
    48  Br         0.80376200       0.08513500       0.11098200
    49  O          0.58180140       0.32923000       0.67077900
    50  O          0.41819860       0.82923000       0.82922100
    51  O          0.41819860       0.67077000       0.32922100
    52  O          0.58180140       0.17077000       0.17077900
    53  N          0.57366190       0.25884000       0.56248120
    54  N          0.42633810       0.75884000       0.93751880
    55  N          0.42633810       0.74116000       0.43751880
    56  N          0.57366190       0.24116000       0.06248120
    57  H          0.54420000       0.14260000       0.56411500
    58  H          0.45580000       0.64260000       0.93588500
    59  H          0.45580000       0.85740000       0.43588500
    60  H          0.54420000       0.35740000       0.06411500
    61  H          0.59620000       0.28560000       0.52571600
    62  H          0.40380000       0.78560000       0.97428400
    63  H          0.40380000       0.71440000       0.47428400
    64  H          0.59620000       0.21440000       0.02571600
    65  C          0.67797190       0.56085000       0.60461120
    66  C          0.32202810       0.06085000       0.89538880
    67  C          0.32202810       0.43915000       0.39538880
    68  C          0.67797190       0.93915000       0.10461120
    69  C          0.60448180       0.37265000       0.61515130
    70  C          0.39551820       0.87265000       0.88484870
    71  C          0.39551820       0.62735000       0.38484870
    72  C          0.60448180       0.12735000       0.11515130
    73  N          0.97727170       0.20984000       0.62236110
    74  N          0.02272830       0.70984000       0.87763890
    75  N          0.02272830       0.79016000       0.37763890
    76  N          0.97727170       0.29016000       0.12236110
    77  C         -0.00985820       0.10515000       0.56127120
    78  C          0.00985820       0.60515000       0.93872880
    79  C          0.00985820       0.89485000       0.43872880
    80  C         -0.00985820       0.39485000       0.06127120
    81  C          0.94012000       0.91015000       0.54358140
    82  C          0.05988000       0.41015000       0.95641860
    83  C          0.05988000       0.08985000       0.45641860
    84  C          0.94012000       0.58985000       0.04358140
    85  H          0.90120000       0.85140000       0.57111500
    86  H          0.09880000       0.35140000       0.92888500
    87  H          0.09880000       0.14860000       0.42888500
    88  H          0.90120000       0.64860000       0.07111500
    89  C          0.05022000       0.19325000       0.51610140
    90  C          0.94978000       0.69325000       0.98389860
    91  C          0.94978000       0.80675000       0.48389860
    92  C          0.05022000       0.30675000       0.01610140
    93  H          0.08220000       0.32360000       0.52481500
    94  H          0.91780000       0.82360000       0.97518500
    95  H          0.91780000       0.67640000       0.47518500
    96  H          0.08220000       0.17640000       0.02481500
    97  C          0.96182000       0.05896000       0.67662150
    98  C          0.03818000       0.55896000       0.82337850
    99  C          0.03818000       0.94104000       0.32337850
   100  C          0.96182000       0.44104000       0.17662150
   101  H          0.90320000       0.97140000       0.66901600
   102  H          0.09680000       0.47140000       0.83098400
   103  H          0.09680000       0.02860000       0.33098400
   104  H          0.90320000       0.52860000       0.16901600
   105  H          0.95720000       0.13360000       0.71821600
   106  H          0.04280000       0.63360000       0.78178400
   107  H          0.04280000       0.86640000       0.28178400
   108  H          0.95720000       0.36640000       0.21821600
   109  H          0.01620000       0.96140000       0.68261600
   110  H          0.98380000       0.46140000       0.81738400
   111  H          0.98380000       0.03860000       0.31738400
   112  H          0.01620000       0.53860000       0.18261600
   113  C          0.04412000       0.39086000       0.64053160
   114  C          0.95588000       0.89086000       0.85946840
   115  C          0.95588000       0.60914000       0.35946840
   116  C          0.04412000       0.10914000       0.14053160
   117  H          0.03920000       0.52060000       0.60581700
   118  H          0.96080000       0.02060000       0.89418300
   119  H          0.96080000       0.47940000       0.39418300
   120  H          0.03920000      -0.02060000       0.10581700
   121  H          0.02820000       0.45460000       0.68521700
   122  H          0.97180000       0.95460000       0.81478300
   123  H          0.97180000       0.54540000       0.31478300
   124  H          0.02820000       0.04540000       0.18521700
   125  H          0.10230000       0.34660000       0.64601600
   126  H          0.89770000       0.84660000       0.85398400
   127  H          0.89770000       0.65340000       0.35398400
   128  H          0.10230000       0.15340000       0.14601600
