data_XEDQOQ
_symmetry_space_group_name_H-M    'P1'
_symmetry_Int_Tables_number       1
loop_
_symmetry_equiv_pos_site_id
_symmetry_equiv_pos_as_xyz
1 x,y,z
_cell_length_a                   9.23919
_cell_length_b                   9.93001
_cell_length_c                   18.447718
_cell_angle_alpha                75.0885
_cell_angle_beta                 77.3965
_cell_angle_gamma                63.4765
loop_
_atom_site_label
_atom_site_type_symbol
_atom_site_fract_x
_atom_site_fract_y
_atom_site_fract_z
     1  I          0.87126600       0.83219500       0.31897200
     2  I          0.12873400       0.16780500       0.68102800
     3  I          0.46003500       0.97281500       0.20317200
     4  I          0.53996500       0.02718500       0.79682800
     5  O          0.49844000       0.85745000       0.37582000
     6  O          0.50156000       0.14255000       0.62418000
     7  H          0.51203700       0.82689500       0.42054700
     8  H          0.48796300       0.17310500       0.57945300
     9  O          0.02935000       0.74466000       0.46782000
    10  O          0.97065000       0.25534000       0.53218000
    11  H          0.06037600       0.73258300       0.50835700
    12  H          0.93962400       0.26741700       0.49164300
    13  C          0.08716000       0.83146000       0.33643000
    14  C          0.91284000       0.16854000       0.66357000
    15  C          0.32146000       0.88906000       0.29213000
    16  C          0.67854000       0.11094000       0.70787000
    17  C          0.18426000       0.88036000       0.27913000
    18  C          0.81574000       0.11964000       0.72087000
    19  H          0.15730400       0.90851600       0.23008200
    20  H          0.84269600       0.09148400       0.76991800
    21  C          0.36246000       0.84986000       0.36473000
    22  C          0.63754000       0.15014000       0.63527000
    23  C          0.12676000       0.79146000       0.41063000
    24  C          0.87324000       0.20854000       0.58937000
    25  C          0.26636000       0.79966000       0.42313000
    26  C          0.73364000       0.20034000       0.57687000
    27  H          0.29489700       0.77048100       0.47188500
    28  H          0.70510300       0.22951900       0.52811500
    29  O          0.17165000       0.24445000       0.96052000
    30  O          0.82835000       0.75555000       0.03948000
    31  O          0.91365000       0.38315000       0.00542000
    32  O          0.08635000       0.61685000      -0.00542000
    33  N          0.56356000       0.77006000       0.52023000
    34  N          0.43644000       0.22994000       0.47977000
    35  C          0.82027000       0.52576000       0.77103000
    36  C          0.17973000       0.47424000       0.22897000
    37  H          0.90711100       0.48456000       0.73509400
    38  H          0.09288900       0.51544000       0.26490600
    39  C          0.67527000       0.62366000       0.74743000
    40  C          0.32473000       0.37634000       0.25257000
    41  H          0.58952300       0.66487200       0.78379000
    42  H          0.41047700       0.33512800       0.21621000
    43  C          0.84777000       0.48116000       0.84993000
    44  C          0.15223000       0.51884000       0.15007000
    45  H          0.76072000       0.52110600       0.88603900
    46  H          0.23928000       0.47889400       0.11396100
    47  C          0.99127000       0.38616000       0.87243000
    48  C          0.00873000       0.61384000       0.12757000
    49  H          0.07930500       0.34665500       0.83662800
    50  H          0.92069500       0.65334500       0.16337200
    51  C          0.75197000       0.60937000       0.60973000
    52  C          0.24803000       0.39063000       0.39027000
    53  H          0.85461800       0.53288900       0.61874600
    54  H          0.14538200       0.46711100       0.38125400
    55  C          0.49267000       0.78347000       0.65154000
    56  C          0.50733000       0.21653000       0.34846000
    57  H          0.41418700       0.82847100       0.68946400
    58  H          0.58581300       0.17152900       0.31053600
    59  C          0.01507000       0.34067000       0.95394000
    60  C          0.98493000       0.65933000       0.04606000
    61  C          0.64207000       0.67006000       0.66893000
    62  C          0.35793000       0.32994000       0.33107000
    63  C          0.71027000       0.66138000       0.53703000
    64  C          0.28973000       0.33862000       0.46297000
    65  H          0.78705700       0.61915100       0.49795500
    66  H          0.21294300       0.38084900       0.50204500
    67  C          0.45978000       0.83037000       0.57654000
    68  C          0.54022000       0.16963000       0.42346000
    69  H          0.35883700       0.90837600       0.56578400
    70  H          0.64116300       0.09162400       0.43421600
    71  C          0.21667000       0.19127000       0.03653000
    72  C          0.78333000       0.80873000       0.96347000
    73  H          0.33308700       0.14008700       0.03443800
    74  H          0.66691300       0.85991300       0.96556200
    75  H          0.16944100       0.12129900       0.06394900
    76  H          0.83055900       0.87870100       0.93605100
    77  H          0.17715400       0.27700400       0.06141500
    78  H          0.82284600       0.72299600       0.93858500
    79  O          0.79725000       0.11445000       0.02402000
    80  O          0.20275000       0.88555000       0.97598000
    81  O          0.55225000       0.26425000       0.07432000
    82  O          0.44775000       0.73575000       0.92568000
    83  N          0.13236000       0.67396000       0.60423000
    84  N          0.86764000       0.32604000       0.39577000
    85  C          0.64388000       0.22407000       0.01934000
    86  C          0.35612000       0.77593000       0.98066000
    87  C          0.42777000       0.43157000       0.84433000
    88  C          0.57223000       0.56843000       0.15567000
    89  H          0.50702400       0.38666200       0.80662600
    90  H          0.49297600       0.61333800       0.19337400
    91  C          0.23497000       0.58286000       0.74853000
    92  C          0.76503000       0.41714000       0.25147000
    93  C          0.09237000       0.70897000       0.73123000
    94  C          0.90763000       0.29103000       0.26877000
    95  H          0.02776300       0.76711900       0.76785300
    96  H          0.97223700       0.23288100       0.23214700
    97  C          0.61097000       0.27187000       0.94153000
    98  C          0.38903000       0.72813000       0.05847000
    99  H          0.69097500       0.22473800       0.90459700
   100  H          0.30902500       0.77526200       0.09540300
   101  C          0.04508000       0.74917000       0.66004000
   102  C          0.95492000       0.25083000       0.33996000
   103  H          0.94702500       0.83308600       0.65053400
   104  H          0.05297500       0.16691400       0.34946600
   105  C          0.46807000       0.38227000       0.92113000
   106  C          0.53193000       0.61773000       0.07887000
   107  H          0.39021700       0.42998500       0.95853800
   108  H          0.60978300       0.57001500       0.04146200
   109  C          0.26928000       0.55318000       0.62074000
   110  C          0.73072000       0.44682000       0.37926000
   111  H          0.33186500       0.49791200       0.58269400
   112  H          0.66813500       0.50208800       0.41730600
   113  C          0.32518000       0.50367000       0.69053000
   114  C          0.67482000       0.49633000       0.30947000
   115  H          0.42247600       0.41792700       0.69853800
   116  H          0.57752400       0.58207300       0.30146200
   117  C          0.28437000       0.53687000       0.82473000
   118  C          0.71563000       0.46313000       0.17527000
   119  H          0.20860800       0.58567300       0.86228900
   120  H          0.79139200       0.41432700       0.13771100
   121  C          0.84857000       0.05447000       0.09863000
   122  C          0.15143000       0.94553000       0.90137000
   123  H          0.96071000       0.98253400       0.09503300
   124  H          0.03929000       0.01746600       0.90496700
   125  H          0.78260600       0.00398900       0.12951500
   126  H          0.21739400      -0.00398900       0.87048500
   127  H          0.83646500       0.13691400       0.12074200
   128  H          0.16353500       0.86308600       0.87925800
