data_XEDQUW
_symmetry_space_group_name_H-M    'P1'
_symmetry_Int_Tables_number       1
loop_
_symmetry_equiv_pos_site_id
_symmetry_equiv_pos_as_xyz
1 x,y,z
_cell_length_a                   9.00669
_cell_length_b                   9.90031
_cell_length_c                   18.207418
_cell_angle_alpha                92.2605
_cell_angle_beta                 103.3685
_cell_angle_gamma                116.2065
loop_
_atom_site_label
_atom_site_type_symbol
_atom_site_fract_x
_atom_site_fract_y
_atom_site_fract_z
     1  Br         0.27683500       0.16002400       0.81731200
     2  Br         0.72316500       0.83997600       0.18268800
     3  Br         0.58116500       0.03745500       0.70337200
     4  Br         0.41883500       0.96254500       0.29662800
     5  O          0.21923000       0.24093000       0.96534120
     6  O          0.78077000       0.75907000       0.03465880
     7  H          0.20682400       0.27234000       0.00467500
     8  H          0.79317600       0.72766000      -0.00467500
     9  O          0.62993000       0.13853000       0.86905120
    10  O          0.37007000       0.86147000       0.13094880
    11  H          0.64501600       0.16811500       0.91413100
    12  H          0.35498400       0.83188500       0.08586900
    13  C          0.78174000       0.10523000       0.78583160
    14  C          0.21826000       0.89477000       0.21416840
    15  C          0.92404000       0.19024000       0.91889170
    16  C          0.07596000       0.80976000       0.08110830
    17  H          0.92257000       0.21715000       0.96813500
    18  H          0.07743000       0.78285000       0.03186500
    19  C          0.93004000       0.11213000       0.77348160
    20  C          0.06996000       0.88787000       0.22651840
    21  H          0.93159000       0.08599700       0.72415100
    22  H          0.06841000       0.91400300       0.27584900
    23  C          0.77634000       0.14443000       0.85928170
    24  C          0.22366000       0.85557000       0.14071830
    25  C          0.07424000       0.19724000       0.90761170
    26  C          0.92576000       0.80276000       0.09238830
    27  C          0.07544000       0.15723000       0.83330170
    28  C          0.92456000       0.84277000       0.16669830
    29  O          0.42223000       0.23233000       0.53966120
    30  O          0.57777000       0.76767000       0.46033880
    31  C          0.31004000       0.62424000       0.75508170
    32  C          0.68996000       0.37576000       0.24491830
    33  H          0.26706600       0.66905300       0.71767900
    34  H          0.73293400       0.33094700       0.28232100
    35  O          0.29954000       0.37683000       0.49616140
    36  O          0.70046000       0.62317000       0.50383860
    37  C          0.36284000       0.33224000       0.54858190
    38  C          0.63716000       0.66776000       0.45141810
    39  C          0.37235000       0.65604000       0.96757190
    40  C          0.62765000       0.34396000       0.03242810
    41  H          0.40031000       0.60747800       0.00720500
    42  H          0.59969000       0.39252200      -0.00720500
    43  C          0.35314000       0.52154000       0.73165180
    44  C          0.64686000       0.47846000       0.26834820
    45  H          0.39679300       0.47600700       0.76841800
    46  H          0.60320700       0.52399300       0.23158200
    47  N          0.34334000       0.77283000       0.98430160
    48  N          0.65666000       0.22717000       0.01569840
    49  C          0.30575000       0.84034000       0.92662000
    50  C          0.69425000       0.15966000       0.07338000
    51  H          0.28545500       0.92246900       0.93680200
    52  H          0.71454500       0.07753100       0.06319800
    53  C          0.38324000       0.37614000       0.62965170
    54  C          0.61676000       0.62386000       0.37034830
    55  H          0.43066000       0.33219200       0.66598000
    56  H          0.56934000       0.66780800       0.33402000
    57  C          0.33664000       0.47604000       0.65279170
    58  C          0.66336000       0.52396000       0.34720830
    59  H          0.29017100       0.51956900       0.61587800
    60  H          0.70982900       0.48043100       0.38412200
    61  C          0.32364000       0.67363000       0.83431180
    62  C          0.67636000       0.32637000       0.16568820
    63  C          0.36295000       0.60324000       0.89475190
    64  C          0.63705000       0.39676000       0.10524810
    65  H          0.38295800       0.52031800       0.88609300
    66  H          0.61704200       0.47968200       0.11390700
    67  C          0.29515000       0.79524000       0.85212000
    68  C          0.70485000       0.20476000       0.14788000
    69  H          0.26867200       0.84693000       0.81379500
    70  H          0.73132800       0.15307000       0.18620500
    71  C          0.41035000       0.18004000       0.46206190
    72  C          0.58965000       0.81996000       0.53793810
    73  H          0.29203100       0.13263000       0.43209800
    74  H          0.70796900       0.86737000       0.56790200
    75  H          0.45409300       0.10745700       0.46250400
    76  H          0.54590700       0.89254300       0.53749600
    77  H          0.47677100       0.26535200       0.44015100
    78  H          0.52322900       0.73464800       0.55984900
    79  O          0.81834000       0.27123000       0.42223130
    80  O          0.18166000       0.72877000       0.57776870
    81  O          0.91093000       0.10903000       0.46980120
    82  O          0.08907000       0.89097000       0.53019880
    83  C          0.79915000       0.70874000       0.76837180
    84  C          0.20085000       0.29126000       0.23162820
    85  H          0.78284800       0.76422500       0.73002300
    86  H          0.21715200       0.23577500       0.26997700
    87  C          0.86764000       0.22174000       0.47575190
    88  C          0.13236000       0.77826000       0.52424810
    89  C          0.86494000       0.43004000       0.65474180
    90  C          0.13506000       0.56996000       0.34525820
    91  H          0.90012300       0.38158000       0.69260300
    92  H          0.09987700       0.61842000       0.30739700
    93  C          0.82664000       0.58573000       0.75274170
    94  C          0.17336000       0.41427000       0.24725830
    95  C          0.85494000       0.38244000       0.57725180
    96  C          0.14506000       0.61756000       0.42274820
    97  H          0.82317000       0.43298000       0.53962800
    98  H          0.17683000       0.56702000       0.46037200
    99  C          0.79565000       0.74914000       0.84072000
   100  C          0.20435000       0.25086000       0.15928000
   101  H          0.77818300       0.83343600       0.84963300
   102  H          0.22181700       0.16656400       0.15036700
   103  C          0.88774000       0.27134000       0.55589180
   104  C          0.11226000       0.72866000       0.44410820
   105  H          0.92498700       0.22302400       0.59320800
   106  H          0.07501300       0.77697600       0.40679200
   107  N          0.81554000       0.67613000       0.89872150
   108  N          0.18446000       0.32387000       0.10127850
   109  C          0.85015000       0.51074000       0.81364190
   110  C          0.14985000       0.48926000       0.18635810
   111  H          0.87069300       0.42751200       0.80696000
   112  H          0.12930700       0.57248800       0.19304000
   113  C          0.82754000       0.53824000       0.67577170
   114  C          0.17246000       0.46176000       0.32422830
   115  H          0.79874000       0.58930300       0.63765100
   116  H          0.20126000       0.41069700       0.36234900
   117  C          0.89765000       0.05134000       0.39354190
   118  C          0.10235000       0.94866000       0.60645810
   119  H          0.77983600       0.00736100       0.36319900
   120  H          0.22016400      -0.00736100       0.63680100
   121  H          0.93577400       0.97466300       0.39547700
   122  H          0.06422600       0.02533700       0.60452300
   123  H          0.96817400       0.13320300       0.37102700
   124  H          0.03182600       0.86679700       0.62897300
   125  C          0.84305000       0.55904000       0.88342000
   126  C          0.15695000       0.44096000       0.11658000
   127  H          0.85862700       0.50566900       0.92295600
   128  H          0.14137300       0.49433100       0.07704400
