data_XEDXEN
_symmetry_space_group_name_H-M    'P1'
_symmetry_Int_Tables_number       1
loop_
_symmetry_equiv_pos_site_id
_symmetry_equiv_pos_as_xyz
1 x,y,z
_cell_length_a                   16.116516
_cell_length_b                   8.29408
_cell_length_c                   20.8542
_cell_angle_alpha                90.0
_cell_angle_beta                 100.8495
_cell_angle_gamma                90.0
loop_
_atom_site_label
_atom_site_type_symbol
_atom_site_fract_x
_atom_site_fract_y
_atom_site_fract_z
     1  O          0.85202600       0.46513150       0.98944500
     2  O          0.64797400       0.96513150       0.51055500
     3  O          0.14797400       0.53486850       0.01055500
     4  O          0.35202600       0.03486850       0.48944500
     5  H          0.86835400       0.42624100       0.02577600
     6  H          0.63164600       0.92624100       0.47422400
     7  H          0.13164600       0.57375900       0.97422400
     8  H          0.36835400       0.07375900       0.52577600
     9  O          0.77659600       0.59375140       0.87613500
    10  O          0.72340400       0.09375140       0.62386500
    11  O          0.22340400       0.40624860       0.12386500
    12  O          0.27659600       0.90624860       0.37613500
    13  H          0.74719800       0.60639700       0.83987300
    14  H          0.75280200       0.10639700       0.66012700
    15  H          0.25280200       0.39360300       0.16012700
    16  H          0.24719800       0.89360300       0.33987300
    17  C          0.76612900       0.47972190       0.97812700
    18  C          0.73387100       0.97972190       0.52187300
    19  C          0.23387100       0.52027810       0.02187300
    20  C          0.26612900       0.02027810       0.47812700
    21  C          0.72697900       0.54761180       0.91908700
    22  C          0.77302100       0.04761180       0.58091300
    23  C          0.27302100       0.45238820       0.08091300
    24  C          0.22697900       0.95238820       0.41908700
    25  C          0.64027100       0.56572000       0.90681800
    26  C          0.85972900       0.06572000       0.59318200
    27  C          0.35972900       0.43428000       0.09318200
    28  C          0.14027100       0.93428000       0.40681800
    29  H          0.61375600       0.61572100       0.86848800
    30  H          0.88624400       0.11572100       0.63151200
    31  H          0.38624400       0.38427900       0.13151200
    32  H          0.11375600       0.88427900       0.36848800
    33  C          0.71778100       0.42802000       0.02178800
    34  C          0.78221900       0.92802000       0.47821200
    35  C          0.28221900       0.57198000       0.97821200
    36  C          0.21778100       0.07198000       0.52178800
    37  H          0.74424500       0.38304500       0.06119600
    38  H          0.75575500       0.88304500       0.43880400
    39  H          0.25575500       0.61695500       0.93880400
    40  H          0.24424500       0.11695500       0.56119600
    41  C          0.63111110       0.44133000       0.00859900
    42  C          0.86888890       0.94133000       0.49140100
    43  C          0.36888890       0.55867000       0.99140100
    44  C          0.13111110       0.05867000       0.50859900
    45  H          0.59929100       0.40392200       0.03838700
    46  H          0.90070900       0.90392200       0.46161300
    47  H          0.40070900       0.59607800       0.96161300
    48  H          0.09929100       0.09607800       0.53838700
    49  C          0.59217110       0.51043000       0.95081900
    50  C          0.90782890       0.01043000       0.54918100
    51  C          0.40782890       0.48957000       0.04918100
    52  C          0.09217110      -0.01043000       0.45081900
    53  H          0.53365100       0.52001600       0.94126200
    54  H          0.96634900       0.02001600       0.55873800
    55  H          0.46634900       0.47998400       0.05873800
    56  H          0.03365100       0.97998400       0.44126200
    57  N          0.91832200       0.35274160       0.11558600
    58  N          0.58167800       0.85274160       0.38441400
    59  N          0.08167800       0.64725840       0.88441400
    60  N          0.41832200       0.14725840       0.61558600
    61  N          0.68129800       0.62240160       0.75044600
    62  N          0.81870200       0.12240160       0.74955400
    63  N          0.31870200       0.37759840       0.24955400
    64  N          0.18129800       0.87759840       0.25044600
    65  C          0.56324800       0.64503170       0.63244600
    66  C          0.93675200       0.14503170       0.86755400
    67  C          0.43675200       0.35496830       0.36755400
    68  C          0.06324800       0.85496830       0.13244600
    69  C          0.05353900       0.35307190       0.31266700
    70  C          0.44646100       0.85307190       0.18733300
    71  C          0.94646100       0.64692810       0.68733300
    72  C          0.55353900       0.14692810       0.81266700
    73  H          0.03161000       0.29098600       0.34267500
    74  H          0.46839000       0.79098600       0.15732500
    75  H          0.96839000       0.70901400       0.65732500
    76  H          0.53161000       0.20901400       0.84267500
    77  C          0.50204900       0.66222180       0.57182700
    78  C         -0.00204900       0.16222180       0.92817300
    79  C          0.49795100       0.33777820       0.42817300
    80  C          0.00204900       0.83777820       0.07182700
    81  H          0.51485000       0.73573500       0.54144500
    82  H          0.98515000       0.23573500       0.95855500
    83  H          0.48515000       0.26426500       0.45855500
    84  H          0.01485000       0.76426500       0.04144500
    85  C          0.00813800       0.35249170       0.24536600
    86  C          0.49186200       0.85249170       0.25463400
    87  C         -0.00813800       0.64750830       0.75463400
    88  C          0.50813800       0.14750830       0.74536600
    89  C          0.37054900       0.59707190       0.49524700
    90  C          0.12945100       0.09707190       0.00475300
    91  C          0.62945100       0.40292810       0.50475300
    92  C          0.87054900       0.90292810      -0.00475300
    93  H          0.38263300       0.67153500       0.46493800
    94  H          0.11736700       0.17153500       0.03506200
    95  H          0.61736700       0.32846500       0.53506200
    96  H          0.88263300       0.82846500       0.96493800
    97  C          0.63246800       0.74647190       0.64667600
    98  C          0.86753200       0.24647190       0.85332400
    99  C          0.36753200       0.25352810       0.35332400
   100  C          0.13246800       0.75352810       0.14667600
   101  H          0.64134700       0.82460400       0.61669900
   102  H          0.85865300       0.32460400       0.88330100
   103  H          0.35865300       0.17539600       0.38330100
   104  H          0.14134700       0.67539600       0.11669900
   105  C          0.17323900       0.43114190       0.39951700
   106  C          0.32676100       0.93114190       0.10048300
   107  C          0.82676100       0.56885810       0.60048300
   108  C          0.67323900       0.06885810       0.89951700
   109  H          0.15516800       0.36529000       0.43027300
   110  H          0.34483200       0.86529000       0.06972700
   111  H          0.84483200       0.63471000       0.56972700
   112  H          0.65516800       0.13471000       0.93027300
   113  C          0.42941900       0.58223190       0.55594700
   114  C          0.07058100       0.08223190       0.94405300
   115  C          0.57058100       0.41776810       0.44405300
   116  C          0.92941900       0.91776810       0.05594700
   117  H          0.41564800       0.51082000       0.58668800
   118  H          0.08435200       0.01082000       0.91331200
   119  H          0.58435200       0.48918000       0.41331200
   120  H          0.91564800      -0.01082000       0.08668800
   121  C          0.12443900       0.43611190       0.33469700
   122  C          0.37556100       0.93611190       0.16530300
   123  C          0.87556100       0.56388810       0.66530300
   124  C          0.62443900       0.06388810       0.83469700
   125  H          0.14379200       0.50345300       0.30501900
   126  H          0.35620800       0.00345300       0.19498100
   127  H          0.85620800       0.49654700       0.69498100
   128  H          0.64379200      -0.00345300       0.80501900
   129  C          0.68836900       0.73178190       0.70536700
   130  C          0.81163100       0.23178190       0.79463300
   131  C          0.31163100       0.26821810       0.29463300
   132  C          0.18836900       0.76821810       0.20536700
   133  H          0.73370800       0.80292700       0.71376900
   134  H          0.76629200       0.30292700       0.78623100
   135  H          0.26629200       0.19707300       0.28623100
   136  H          0.23370800       0.69707300       0.21376900
   137  C         -0.00147100       0.40162000       0.13086700
   138  C          0.50147100       0.90162000       0.36913300
   139  C          0.00147100       0.59838000       0.86913300
   140  C          0.49852900       0.09838000       0.63086700
   141  H          0.02460100       0.43704100       0.09726200
   142  H          0.47539900       0.93704100       0.40273800
   143  H          0.97539900       0.56295900       0.90273800
   144  H          0.52460100       0.06295900       0.59726200
   145  C          0.04484900       0.40248190       0.19329700
   146  C          0.45515100       0.90248190       0.30670300
   147  C          0.95515100       0.59751810       0.80670300
   148  C          0.54484900       0.09751810       0.69329700
   149  H          0.10080900       0.43653900       0.20084400
   150  H          0.39919100       0.93653900       0.29915600
   151  H          0.89919100       0.56346100       0.79915600
   152  H          0.60080900       0.06346100       0.70084400
   153  C          0.29954900       0.51085190       0.47947700
   154  C          0.20045100       0.01085190       0.02052300
   155  C          0.70045100       0.48914810       0.52052300
   156  C          0.79954900      -0.01085190       0.97947700
   157  H          0.28546900       0.44187300       0.51092200
   158  H          0.21453100       0.94187300       0.98907800
   159  H          0.71453100       0.55812700       0.48907800
   160  H          0.78546900       0.05812700       0.01092200
   161  C          0.92530100       0.29841190       0.22918700
   162  C          0.57469900       0.79841190       0.27081300
   163  C          0.07469900       0.70158810       0.77081300
   164  C          0.42530100       0.20158810       0.72918700
   165  H          0.89779500       0.26044700       0.26157900
   166  H          0.60220500       0.76044700       0.23842100
   167  H          0.10220500       0.73955300       0.73842100
   168  H          0.39779500       0.23955300       0.76157900
   169  C          0.24387900       0.51763190       0.41755700
   170  C          0.25612100       0.01763190       0.08244300
   171  C          0.75612100       0.48236810       0.58244300
   172  C          0.74387900       0.98236810       0.91755700
   173  H          0.25803700       0.58883200       0.38688600
   174  H          0.24196300       0.08883200       0.11311400
   175  H          0.74196300       0.41116800       0.61311400
   176  H          0.75803700       0.91116800       0.88688600
   177  C          0.88405100       0.30112000       0.16523800
   178  C          0.61594900       0.80112000       0.33476200
   179  C          0.11594900       0.69888000       0.83476200
   180  C          0.38405100       0.19888000       0.66523800
   181  H          0.82856000       0.26439100       0.15596700
   182  H          0.67144000       0.76439100       0.34403300
   183  H          0.17144000       0.73560900       0.84403300
   184  H          0.32856000       0.23560900       0.65596700
   185  C          0.55697100       0.52872000       0.67912700
   186  C          0.94302900       0.02872000       0.82087300
   187  C          0.44302900       0.47128000       0.32087300
   188  C          0.05697100       0.97128000       0.17912700
   189  H          0.51252100       0.45534000       0.67207300
   190  H          0.98747900       0.95534000       0.82792700
   191  H          0.48747900       0.54466000       0.32792700
   192  H          0.01252100       0.04466000       0.17207300
   193  C          0.61628100       0.52172000       0.73565700
   194  C          0.88371900       0.02172000       0.76434300
   195  C          0.38371900       0.47828000       0.26434300
   196  C          0.11628100       0.97828000       0.23565700
   197  H          0.61064300       0.44124700       0.76560300
   198  H          0.88935700       0.94124700       0.73439700
   199  H          0.38935700       0.55875300       0.23439700
   200  H          0.11064300       0.05875300       0.26560300
   201  N          0.40341130       0.64602000       0.80973100
   202  N          0.09658870       0.14602000       0.69026900
   203  N          0.59658870       0.35398000       0.19026900
   204  N          0.90341130       0.85398000       0.30973100
   205  C          0.28765130       0.64462000       0.68937900
   206  C          0.21234870       0.14462000       0.81062100
   207  C          0.71234870       0.35538000       0.31062100
   208  C          0.78765130       0.85538000       0.18937900
   209  C          0.22859160       0.64993000       0.62730100
   210  C          0.27140840       0.14993000       0.87269900
   211  C          0.77140840       0.35007000       0.37269900
   212  C          0.72859160       0.85007000       0.12730100
   213  H          0.24250800       0.71897500       0.59582000
   214  H          0.25749200       0.21897500       0.90418000
   215  H          0.75749200       0.28102500       0.40418000
   216  H          0.74250800       0.78102500       0.09582000
   217  C          0.15611160       0.56643000       0.61019100
   218  C          0.34388840       0.06643000       0.88980900
   219  C          0.84388840       0.43357000       0.38980900
   220  C          0.65611160       0.93357000       0.11019100
   221  H          0.14144600       0.49587700       0.64091000
   222  H          0.35855400      -0.00412300       0.85909000
   223  H          0.85855400       0.50412300       0.35909000
   224  H          0.64144600       0.00412300       0.14091000
   225  C          0.36091150       0.73912000       0.69963120
   226  C          0.13908850       0.23912000       0.80036880
   227  C          0.63908850       0.26088000       0.30036880
   228  C          0.86091150       0.76088000       0.19963120
   229  H          0.37316200       0.80462800       0.66644700
   230  H          0.12683800       0.30462800       0.83355300
   231  H          0.62683800       0.19537200       0.33355300
   232  H          0.87316200       0.69537200       0.16644700
   233  C          0.27646130       0.55102000       0.74176100
   234  C          0.22353870       0.05102000       0.75823900
   235  C          0.72353870       0.44898000       0.25823900
   236  C          0.77646130       0.94898000       0.24176100
   237  H          0.22951000       0.48408200       0.73811700
   238  H          0.27049000      -0.01591800       0.76188300
   239  H          0.77049000       0.51591800       0.26188300
   240  H          0.72951000       0.01591800       0.23811700
   241  C          0.10007170       0.57763000       0.54860100
   242  C          0.39992830       0.07763000       0.95139900
   243  C          0.89992830       0.42237000       0.45139900
   244  C          0.60007170       0.92237000       0.04860100
   245  H          0.11476800       0.64878000       0.51813800
   246  H          0.38523200       0.14878000       0.98186200
   247  H          0.88523200       0.35122000       0.48186200
   248  H          0.61476800       0.85122000       0.01813800
   249  C          0.02768150       0.49393000       0.53076900
   250  C          0.47231850      -0.00607000       0.96923100
   251  C          0.97231850       0.50607000       0.46923100
   252  C          0.52768150       0.00607000       0.03076900
   253  H          0.01278500       0.42260600       0.56109700
   254  H          0.48721500       0.92260600       0.93890300
   255  H          0.98721500       0.57739400       0.43890300
   256  H          0.51278500       0.07739400       0.06109700
   257  C          0.33391150       0.55613000       0.79896110
   258  C          0.16608850       0.05613000       0.70103890
   259  C          0.66608850       0.44387000       0.20103890
   260  C          0.83391150       0.94387000       0.29896110
   261  H          0.32357600       0.49149600       0.83306500
   262  H          0.17642400      -0.00850400       0.66693500
   263  H          0.67642400       0.50850400       0.16693500
   264  H          0.82357600       0.00850400       0.33306500
   265  C          0.41471160       0.73403000       0.75938150
   266  C          0.08528840       0.23403000       0.74061850
   267  C          0.58528840       0.26597000       0.24061850
   268  C          0.91471160       0.76597000       0.25938150
   269  H          0.46294100       0.79789300       0.76463500
   270  H          0.03705900       0.29789300       0.73536500
   271  H          0.53705900       0.20210700       0.23536500
   272  H          0.96294100       0.70210700       0.26463500
