data_XEDXAJ
_symmetry_space_group_name_H-M    'P1'
_symmetry_Int_Tables_number       1
loop_
_symmetry_equiv_pos_site_id
_symmetry_equiv_pos_as_xyz
1 x,y,z
_cell_length_a                   16.391416
_cell_length_b                   4.26064
_cell_length_c                   24.0502
_cell_angle_alpha                90.0
_cell_angle_beta                 105.9085
_cell_angle_gamma                90.0
loop_
_atom_site_label
_atom_site_type_symbol
_atom_site_fract_x
_atom_site_fract_y
_atom_site_fract_z
     1  I          0.61916200       0.62767600       0.31796200
     2  I          0.88083800       0.12767600       0.18203800
     3  I          0.38083800       0.37232400       0.68203800
     4  I          0.11916200       0.87232400       0.81796200
     5  I          0.84252200       0.72760600       0.31669200
     6  I          0.65747800       0.22760600       0.18330800
     7  I          0.15747800       0.27239400       0.68330800
     8  I          0.34252200       0.77239400       0.81669200
     9  F          0.95310160       0.41567000       0.43014110
    10  F          0.54689840       0.91567000       0.06985890
    11  F          0.04689840       0.58433000       0.56985890
    12  F          0.45310160       0.08433000       0.93014110
    13  F          0.62556170       0.22666000       0.42822110
    14  F          0.87443830       0.72666000       0.07177890
    15  F          0.37443830       0.77334000       0.57177890
    16  F          0.12556170       0.27334000       0.92822110
    17  F          0.75152000      -0.00458000       0.51390110
    18  F          0.74848000       0.49542000       0.98609890
    19  F          0.24848000       0.00458000       0.48609890
    20  F          0.25152000       0.50458000       0.01390110
    21  F          0.91522000       0.09108000       0.51590120
    22  F          0.58478000       0.59108000       0.98409880
    23  F          0.08478000       0.90892000       0.48409880
    24  F          0.41522000       0.40892000       0.01590120
    25  C          0.72272000       0.45368000       0.38268140
    26  C          0.77728000       0.95368000       0.11731860
    27  C          0.27728000       0.54632000       0.61731860
    28  C          0.22272000       0.04632000       0.88268140
    29  C          0.80752000       0.50068000       0.38394140
    30  C          0.69248000       0.00068000       0.11605860
    31  C          0.19248000       0.49932000       0.61605860
    32  C          0.30752000      -0.00068000       0.88394140
    33  C          0.87113000       0.37831000       0.42877180
    34  C          0.62887000       0.87831000       0.07122820
    35  C          0.12887000       0.62169000       0.57122820
    36  C          0.37113000       0.12169000       0.92877180
    37  C          0.70623000       0.28271000       0.42742170
    38  C          0.79377000       0.78271000       0.07257830
    39  C          0.29377000       0.71729000       0.57257830
    40  C          0.20623000       0.21729000       0.92742170
    41  C          0.85243000       0.21281000       0.47227180
    42  C          0.64757000       0.71281000       0.02772820
    43  C          0.14757000       0.78719000       0.52772820
    44  C          0.35243000       0.28719000       0.97227180
    45  C          0.76973000       0.16331000       0.47161170
    46  C          0.73027000       0.66331000       0.02838830
    47  C          0.23027000       0.83669000       0.52838830
    48  C          0.26973000       0.33669000       0.97161170
    49  N          0.47102000       0.86988000       0.23781160
    50  N          0.02898000       0.36988000       0.26218840
    51  N          0.52898000       0.13012000       0.76218840
    52  N          0.97102000       0.63012000       0.73781160
    53  C          0.30502000       0.03449000       0.17580150
    54  C          0.19498000       0.53449000       0.32419850
    55  C          0.69498000       0.96551000       0.82419850
    56  C          0.80502000       0.46551000       0.67580150
    57  C          0.08542000       0.08241100       0.06672160
    58  C          0.41458000       0.58241100       0.43327840
    59  C          0.91458000       0.91758900       0.93327840
    60  C          0.58542000       0.41758900       0.56672160
    61  H          0.05871000       0.23320900       0.08350200
    62  H          0.44129000       0.73320900       0.41649800
    63  H          0.94129000       0.76679100       0.91649800
    64  H          0.55871000       0.26679100       0.58350200
    65  C          0.04212000       0.95611000       0.01586170
    66  C          0.45788000       0.45611000       0.48413830
    67  C          0.95788000       0.04389000       0.98413830
    68  C          0.54212000       0.54389000       0.51586170
    69  H          0.06883800       0.80035000       0.00019800
    70  H          0.43116200       0.30035000       0.49980200
    71  H          0.93116200       0.19965000      -0.00019800
    72  H          0.56883800       0.69965000       0.50019800
    73  C          0.21742000       0.11909000       0.14562170
    74  C          0.28258000       0.61909000       0.35437830
    75  C          0.78258000       0.88091000       0.85437830
    76  C          0.71742000       0.38091000       0.64562170
    77  H          0.19199300       0.27347400       0.16252100
    78  H          0.30800700       0.77347400       0.33747900
    79  H          0.80800700       0.72652600       0.83747900
    80  H          0.69199300       0.22652600       0.66252100
    81  C          0.17082000      -0.00451000       0.09624160
    82  C          0.32918000       0.49549000       0.40375840
    83  C          0.82918000       0.00451000       0.90375840
    84  C          0.67082000       0.50451000       0.59624160
    85  H          0.19584200       0.83918600       0.07945000
    86  H          0.30415800       0.33918600       0.42055000
    87  H          0.80415800       0.16081400       0.92055000
    88  H          0.69584200       0.66081400       0.57945000
    89  C          0.34063000       0.13111000       0.23208170
    90  C          0.15937000       0.63111000       0.26791830
    91  C          0.65937000       0.86889000       0.76791830
    92  C          0.84063000       0.36889000       0.73208170
    93  H          0.30952900       0.25531100       0.25068600
    94  H          0.19047100       0.75531100       0.24931400
    95  H          0.69047100       0.74468900       0.74931400
    96  H          0.80952900       0.24468900       0.75068600
    97  C          0.42233000       0.04291000       0.26057170
    98  C          0.07767000       0.54291000       0.23942830
    99  C          0.57767000       0.95709000       0.73942830
   100  C          0.92233000       0.45709000       0.76057170
   101  H          0.44436300       0.11082800       0.29848200
   102  H          0.05563700       0.61082800       0.20151800
   103  H          0.55563700       0.88917200       0.70151800
   104  H          0.94436300       0.38917200       0.79848200
   105  C          0.35693000       0.85481000       0.15160170
   106  C          0.14307000       0.35481000       0.34839830
   107  C          0.64307000       0.14519000       0.84839830
   108  C          0.85693000       0.64519000       0.65160170
   109  H          0.33682300       0.78525400       0.11364100
   110  H          0.16317700       0.28525400       0.38635900
   111  H          0.66317700       0.21474600       0.88635900
   112  H          0.83682300       0.71474600       0.61364100
   113  C          0.43763000       0.77871100       0.18322000
   114  C          0.06237000       0.27871100       0.31678000
   115  C          0.56237000       0.22128900       0.81678000
   116  C          0.93763000       0.72128900       0.68322000
   117  H          0.47068800       0.65755700       0.16562300
   118  H          0.02931200       0.15755700       0.33437700
   119  H          0.52931200       0.34244300       0.83437700
   120  H          0.97068800       0.84244300       0.66562300
