data_XEDYAK
_symmetry_space_group_name_H-M    'P1'
_symmetry_Int_Tables_number       1
loop_
_symmetry_equiv_pos_site_id
_symmetry_equiv_pos_as_xyz
1 x,y,z
_cell_length_a                   8.14701
_cell_length_b                   11.982416
_cell_length_c                   19.6123
_cell_angle_alpha                90.0
_cell_angle_beta                 98.5596
_cell_angle_gamma                90.0
loop_
_atom_site_label
_atom_site_type_symbol
_atom_site_fract_x
_atom_site_fract_y
_atom_site_fract_z
     1  I          0.94218800       0.77577200       0.09148200
     2  I          0.05781200       0.27577200       0.40851800
     3  I          0.05781200       0.22422800       0.90851800
     4  I          0.94218800       0.72422800       0.59148200
     5  I          0.24040200       0.78746200       0.25627200
     6  I          0.75959800       0.28746200       0.24372800
     7  I          0.75959800       0.21253800       0.74372800
     8  I          0.24040200       0.71253800       0.75627200
     9  F          0.87938000       0.02529150       0.04738900
    10  F          0.12062000       0.52529150       0.45261100
    11  F          0.12062000       0.97470850       0.95261100
    12  F          0.87938000       0.47470850       0.54738900
    13  F          0.00113000       0.22044140       0.09749100
    14  F         -0.00113000       0.72044140       0.40250900
    15  F         -0.00113000       0.77955860       0.90250900
    16  F          0.00113000       0.27955860       0.59749100
    17  F          0.31392000       0.04150160       0.28382900
    18  F          0.68608000       0.54150160       0.21617100
    19  F          0.68608000       0.95849840       0.71617100
    20  F          0.31392000       0.45849840       0.78382900
    21  F          0.21793000       0.22898150       0.21484110
    22  F          0.78207000       0.72898150       0.28515890
    23  F          0.78207000       0.77101850       0.78515890
    24  F          0.21793000       0.27101850       0.71484110
    25  C          0.03813000       0.92542000       0.13849130
    26  C          0.96187000       0.42542000       0.36150870
    27  C          0.96187000       0.07458000       0.86150870
    28  C          0.03813000       0.57458000       0.63849130
    29  C         -0.01003000       0.02442000       0.10604130
    30  C          0.01003000       0.52442000       0.39395870
    31  C          0.01003000       0.97558000       0.89395870
    32  C         -0.01003000       0.47558000       0.60604130
    33  C          0.14913000       0.92982000       0.20037130
    34  C          0.85087000       0.42982000       0.29962870
    35  C          0.85087000       0.07018000       0.79962870
    36  C          0.14913000       0.57018000       0.70037130
    37  C          0.20523000       0.03272000       0.22469140
    38  C          0.79477000       0.53272000       0.27530860
    39  C          0.79477000       0.96728000       0.77530860
    40  C          0.20523000       0.46728000       0.72469140
    41  C          0.04823000       0.12562000       0.13084150
    42  C          0.95177000       0.62562000       0.36915850
    43  C          0.95177000       0.87438000       0.86915850
    44  C          0.04823000       0.37438000       0.63084150
    45  C          0.15824000       0.12992000       0.19115150
    46  C          0.84176000       0.62992000       0.30884850
    47  C          0.84176000       0.87008000       0.80884850
    48  C          0.15824000       0.37008000       0.69115150
    49  N          0.37663000       0.59832000       0.32783130
    50  N          0.62337000       0.09832000       0.17216870
    51  N          0.62337000       0.40168000       0.67216870
    52  N          0.37663000       0.90168000       0.82783130
    53  N          0.80513000       0.92288000       0.52180160
    54  N          0.19487000       0.42288000       0.97819840
    55  N          0.19487000       0.07712000       0.47819840
    56  N          0.80513000       0.57712000       0.02180160
    57  C          0.59663000       0.31162000       0.43335140
    58  C          0.40337000       0.81162000       0.06664860
    59  C          0.40337000       0.68838000       0.56664860
    60  C          0.59663000       0.18838000       0.93335140
    61  H          0.67094100       0.32602900       0.47315400
    62  H          0.32905900       0.82602900       0.02684600
    63  H          0.32905900       0.67397100       0.52684600
    64  H          0.67094100       0.17397100       0.97315400
    65  C          0.52083000       0.40862000       0.39563130
    66  C          0.47917000       0.90862000       0.10436870
    67  C          0.47917000       0.59138000       0.60436870
    68  C          0.52083000       0.09138000       0.89563130
    69  C          0.65063000       0.11002000       0.45426150
    70  C          0.34937000       0.61002000       0.04573850
    71  C          0.34937000       0.88998000       0.54573850
    72  C          0.65063000       0.38998000       0.95426150
    73  C          0.40953000       0.40052000       0.33465140
    74  C          0.59047000       0.90052000       0.16534860
    75  C          0.59047000       0.59948000       0.66534860
    76  C          0.40953000       0.09948000       0.83465140
    77  H          0.38075600       0.33112600       0.31520700
    78  H          0.61924400       0.83112600       0.18479300
    79  H          0.61924400       0.66887400       0.68479300
    80  H          0.38075600       0.16887400       0.81520700
    81  C          0.55853000       0.51592000       0.42044150
    82  C          0.44147000       0.01592000       0.07955850
    83  C          0.44147000       0.48408000       0.57955850
    84  C          0.55853000       0.98408000       0.92044150
    85  H          0.63371100       0.52624700       0.46050100
    86  H          0.36628900       0.02624700       0.03949900
    87  H          0.36628900       0.47375300       0.53949900
    88  H          0.63371100       0.97375300       0.96050100
    89  C          0.57023000       0.20632000       0.41659150
    90  C          0.42977000       0.70632000       0.08340850
    91  C          0.42977000       0.79368000       0.58340850
    92  C          0.57023000       0.29368000       0.91659150
    93  H          0.49398800       0.19128800       0.37745800
    94  H          0.50601200       0.69128800       0.12254200
    95  H          0.50601200       0.80871200       0.62254200
    96  H          0.49398800       0.30871200       0.87745800
    97  C          0.34284000       0.49623000       0.30363160
    98  C          0.65716000      -0.00377000       0.19636840
    99  C          0.65716000       0.50377000       0.69636840
   100  C          0.34284000       0.00377000       0.80363160
   101  H          0.26897700       0.48899200       0.26288300
   102  H          0.73102300      -0.01100800       0.23711700
   103  H          0.73102300       0.51100800       0.73711700
   104  H          0.26897700       0.01100800       0.76288300
   105  C          0.48464000       0.60583000       0.38570170
   106  C          0.51536000       0.10583000       0.11429830
   107  C          0.51536000       0.39417000       0.61429830
   108  C          0.48464000       0.89417000       0.88570170
   109  H          0.51133000       0.67655100       0.40352300
   110  H          0.48867000       0.17655100       0.09647700
   111  H          0.48867000       0.32344900       0.59647700
   112  H          0.51133000       0.82344900       0.90352300
   113  C          0.73154000       0.11493000       0.52135160
   114  C          0.26846000       0.61493000       0.97864840
   115  C          0.26846000       0.88507000       0.47864840
   116  C          0.73154000       0.38507000       0.02135160
   117  H          0.73552800       0.18185000       0.54556000
   118  H          0.26447200       0.68185000       0.95444000
   119  H          0.26447200       0.81815000       0.45444000
   120  H          0.73552800       0.31815000       0.04556000
   121  C          0.64804000       0.00633000       0.42306180
   122  C          0.35196000       0.50633000       0.07693820
   123  C          0.35196000      -0.00633000       0.57693820
   124  C          0.64804000       0.49367000       0.92306180
   125  H          0.59266600      -0.00326500       0.37843200
   126  H          0.40733400       0.49673500       0.12156800
   127  H          0.40733400       0.00326500       0.62156800
   128  H          0.59266600       0.50326500       0.87843200
   129  C          0.80544000       0.02183000       0.55218180
   130  C          0.19456000       0.52183000       0.94781820
   131  C          0.19456000       0.97817000       0.44781820
   132  C          0.80544000       0.47817000       0.05218180
   133  H          0.85923400       0.02816500       0.59727400
   134  H          0.14076600       0.52816500       0.90272600
   135  H          0.14076600       0.97183500       0.40272600
   136  H          0.85923400       0.47183500       0.09727400
   137  C          0.72724000       0.91737000       0.45812000
   138  C          0.27276000       0.41737000       0.04188000
   139  C          0.27276000       0.08263000       0.54188000
   140  C          0.72724000       0.58263000       0.95812000
   141  H          0.72563600       0.84920200       0.43537600
   142  H          0.27436400       0.34920200       0.06462400
   143  H          0.27436400       0.15079800       0.56462400
   144  H          0.72563600       0.65079800       0.93537600
