data_XEGBET
_symmetry_space_group_name_H-M    'P1'
_symmetry_Int_Tables_number       1
loop_
_symmetry_equiv_pos_site_id
_symmetry_equiv_pos_as_xyz
1 x,y,z
_cell_length_a                   7.192914
_cell_length_b                   15.0113
_cell_length_c                   6.758014
_cell_angle_alpha                90.0
_cell_angle_beta                 117.653
_cell_angle_gamma                90.0
loop_
_atom_site_label
_atom_site_type_symbol
_atom_site_fract_x
_atom_site_fract_y
_atom_site_fract_z
     1  S         -0.02061700       0.38558400       0.56989700
     2  S          0.02061700       0.88558400       0.93010300
     3  S          0.02061700       0.61441600       0.43010300
     4  S         -0.02061700       0.11441600       0.06989700
     5  O          0.81458000       0.37372120       0.34802000
     6  O          0.18542000       0.87372120       0.15198000
     7  O          0.18542000       0.62627880       0.65198000
     8  O          0.81458000       0.12627880       0.84802000
     9  O          0.05743000       0.30748120       0.70323000
    10  O          0.94257000       0.80748120       0.79677000
    11  O          0.94257000       0.69251880       0.29677000
    12  O          0.05743000       0.19251880       0.20323000
    13  O          0.28142000       0.39913100       0.46182000
    14  O          0.71858000       0.89913100       0.03818000
    15  O          0.71858000       0.60086900       0.53818000
    16  O          0.28142000       0.10086900       0.96182000
    17  O          0.72572000       0.43383100       0.76652000
    18  O          0.27428000       0.93383100       0.73348000
    19  O          0.27428000       0.56616900       0.23348000
    20  O          0.72572000       0.06616900       0.26652000
    21  C          0.32733000       0.48117140       0.17803000
    22  C          0.67267000       0.98117140       0.32197000
    23  C          0.67267000       0.51882860       0.82197000
    24  C          0.32733000       0.01882860       0.67803000
    25  H          0.47963200       0.47000100       0.26829900
    26  H          0.52036800       0.97000100       0.23170100
    27  H          0.52036800       0.52999900       0.73170100
    28  H          0.47963200       0.02999900       0.76829900
    29  H          0.29266000       0.47977200       0.01806600
    30  H          0.70734000       0.97977200       0.48193400
    31  H          0.70734000       0.52022800      -0.01806600
    32  H          0.29266000       0.02022800       0.51806600
    33  C          0.20403000       0.41093150       0.22543000
    34  C          0.79597000       0.91093150       0.27457000
    35  C          0.79597000       0.58906850       0.77457000
    36  C          0.20403000       0.08906850       0.72543000
    37  H          0.05435600       0.42848700       0.15625500
    38  H          0.94564400       0.92848700       0.34374500
    39  H          0.94564400       0.57151300       0.84374500
    40  H          0.05435600       0.07151300       0.65625500
    41  H          0.21411300       0.35379400       0.15780200
    42  H          0.78588700       0.85379400       0.34219800
    43  H          0.78588700       0.64620600       0.84219800
    44  H          0.21411300       0.14620600       0.65780200
    45  C          0.44063000       0.33220150       0.55693000
    46  C          0.55937000       0.83220150       0.94307000
    47  C          0.55937000       0.66779850       0.44307000
    48  C          0.44063000       0.16779850       0.05693000
    49  H          0.50550900       0.32185300       0.45788100
    50  H          0.49449100       0.82185300       0.04211900
    51  H          0.49449100       0.67814700       0.54211900
    52  H          0.50550900       0.17814700       0.95788100
    53  H          0.37694000       0.27556200       0.57051900
    54  H          0.62306000       0.77556200       0.92948100
    55  H          0.62306000       0.72443800       0.42948100
    56  H          0.37694000       0.22443800       0.07051900
    57  C          0.60603000       0.36129150       0.78373000
    58  C          0.39397000       0.86129150       0.71627000
    59  C          0.39397000       0.63870850       0.21627000
    60  C          0.60603000       0.13870850       0.28373000
    61  H          0.53819300       0.37950400       0.87558000
    62  H          0.46180700       0.87950400       0.62442000
    63  H          0.46180700       0.62049600       0.12442000
    64  H          0.53819300       0.12049600       0.37558000
    65  H          0.70067300       0.31062200       0.85929800
    66  H          0.29932700       0.81062200       0.64070200
    67  H          0.29932700       0.68937800       0.14070200
    68  H          0.70067300       0.18937800       0.35929800
