data_XEGYEN
_symmetry_space_group_name_H-M    'P1'
_symmetry_Int_Tables_number       1
loop_
_symmetry_equiv_pos_site_id
_symmetry_equiv_pos_as_xyz
1 x,y,z
_cell_length_a                   7.29027
_cell_length_b                   23.6442
_cell_length_c                   12.02079
_cell_angle_alpha                90.0
_cell_angle_beta                 106.4486
_cell_angle_gamma                90.0
loop_
_atom_site_label
_atom_site_type_symbol
_atom_site_fract_x
_atom_site_fract_y
_atom_site_fract_z
     1  I          0.64789500       0.06690116       0.77724700
     2  I          0.35210500       0.56690116       0.72275300
     3  I          0.35210500       0.93309884       0.22275300
     4  I          0.64789500       0.43309884       0.27724700
     5  I          0.83369400       0.96281283       0.73523700
     6  I          0.16630600       0.46281283       0.76476300
     7  I          0.16630600       0.03718717       0.26476300
     8  I          0.83369400       0.53718717       0.23523700
     9  I          0.47907400       0.17493617       0.82040700
    10  I          0.52092600       0.67493617       0.67959300
    11  I          0.52092600       0.82506383       0.17959300
    12  I          0.47907400       0.32506383       0.32040700
    13  I          0.07353500       0.20053918       0.35045700
    14  I          0.92646500       0.70053918       0.14954300
    15  I          0.92646500       0.79946082       0.64954300
    16  I          0.07353500       0.29946082       0.85045700
    17  Cl         0.71887000       0.04391700       0.42305840
    18  Cl         0.28113000       0.54391700       0.07694160
    19  Cl         0.28113000       0.95608300       0.57694160
    20  Cl         0.71887000       0.45608300       0.92305840
    21  N          0.90713000       0.12212000       0.56456000
    22  N          0.09287000       0.62212000       0.93544000
    23  N          0.09287000       0.87788000       0.43544000
    24  N          0.90713000       0.37788000       0.06456000
    25  C          0.73881000       0.10752000       0.49205000
    26  C          0.26119000       0.60752000       0.00795000
    27  C          0.26119000       0.89248000       0.50795000
    28  C          0.73881000       0.39248000      -0.00795000
    29  C          0.58142000       0.14203000       0.47185000
    30  C          0.41858000       0.64203000       0.02815000
    31  C          0.41858000       0.85797000       0.52815000
    32  C          0.58142000       0.35797000       0.97185000
    33  H          0.46300000       0.13080000       0.41980000
    34  H          0.53700000       0.63080000       0.08020000
    35  H          0.53700000       0.86920000       0.58020000
    36  H          0.46300000       0.36920000       0.91980000
    37  C          0.59841000       0.19293000       0.52825000
    38  C          0.40159000       0.69293000       0.97175000
    39  C          0.40159000       0.80707000       0.47175000
    40  C          0.59841000       0.30707000       0.02825000
    41  H          0.49160000       0.21750000       0.51630000
    42  H          0.50840000       0.71750000       0.98370000
    43  H          0.50840000       0.78250000       0.48370000
    44  H          0.49160000       0.28250000       0.01630000
    45  C          0.77221000       0.20783000       0.60235000
    46  C          0.22779000       0.70783000       0.89765000
    47  C          0.22779000       0.79217000       0.39765000
    48  C          0.77221000       0.29217000       0.10235000
    49  H          0.78600000       0.24310000       0.64170000
    50  H          0.21400000       0.74310000       0.85830000
    51  H          0.21400000       0.75690000       0.35830000
    52  H          0.78600000       0.25690000       0.14170000
    53  C          0.92441000       0.17263000       0.61995000
    54  C          0.07559000       0.67263000       0.88005000
    55  C          0.07559000       0.82737000       0.38005000
    56  C          0.92441000       0.32737000       0.11995000
    57  H          0.04420000       0.18340000       0.67140000
    58  H          0.95580000       0.68340000       0.82860000
    59  H          0.95580000       0.81660000       0.32860000
    60  H          0.04420000       0.31660000       0.17140000
    61  C          0.08199000       0.08553000       0.58494000
    62  C          0.91801000       0.58553000       0.91506000
    63  C          0.91801000       0.91447000       0.41506000
    64  C          0.08199000       0.41447000       0.08494000
    65  H          0.18510000       0.10150000       0.64810000
    66  H          0.81490000       0.60150000       0.85190000
    67  H          0.81490000       0.89850000       0.35190000
    68  H          0.18510000       0.39850000       0.14810000
    69  H          0.12270000       0.08380000       0.51410000
    70  H          0.87730000       0.58380000       0.98590000
    71  H          0.87730000       0.91620000       0.48590000
    72  H          0.12270000       0.41620000       0.01410000
    73  H          0.05210000       0.04730000       0.60620000
    74  H          0.94790000       0.54730000       0.89380000
    75  H          0.94790000       0.95270000       0.39380000
    76  H          0.05210000       0.45270000       0.10620000
    77  Cl         0.18972000       0.04991700       0.93529860
    78  Cl         0.81028000       0.54991700       0.56470140
    79  Cl         0.81028000       0.95008300       0.06470140
    80  Cl         0.18972000       0.45008300       0.43529860
    81  N          0.24487000       0.14302000       0.05864000
    82  N          0.75513000       0.64302000       0.44136000
    83  N          0.75513000       0.85698000       0.94136000
    84  N          0.24487000       0.35698000       0.55864000
    85  C          0.32788000       0.09563000       0.03375000
    86  C          0.67212000       0.59563000       0.46625000
    87  C          0.67212000       0.90437000       0.96625000
    88  C          0.32788000       0.40437000       0.53375000
    89  C          0.51778000       0.08423000       0.08525000
    90  C          0.48222000       0.58423000       0.41475000
    91  C          0.48222000       0.91577000       0.91475000
    92  C          0.51778000       0.41577000       0.58525000
    93  H          0.57460000       0.05060000       0.06700000
    94  H          0.42540000       0.55060000       0.43300000
    95  H          0.42540000       0.94940000       0.93300000
    96  H          0.57460000       0.44940000       0.56700000
    97  C          0.62409000       0.12253000       0.16375000
    98  C          0.37591000       0.62253000       0.33625000
    99  C          0.37591000       0.87747000       0.83625000
   100  C          0.62409000       0.37747000       0.66375000
   101  H          0.75550000       0.11550000       0.20060000
   102  H          0.24450000       0.61550000       0.29940000
   103  H          0.24450000       0.88450000       0.79940000
   104  H          0.75550000       0.38450000       0.70060000
   105  C          0.53889000       0.17103000       0.18835000
   106  C          0.46111000       0.67103000       0.31165000
   107  C          0.46111000       0.82897000       0.81165000
   108  C          0.53889000       0.32897000       0.68835000
   109  H          0.61140000       0.19800000       0.24140000
   110  H          0.38860000       0.69800000       0.25860000
   111  H          0.38860000       0.80200000       0.75860000
   112  H          0.61140000       0.30200000       0.74140000
   113  C          0.34969000       0.18002000       0.13615000
   114  C          0.65031000       0.68002000       0.36385000
   115  C          0.65031000       0.81998000       0.86385000
   116  C          0.34969000       0.31998000       0.63615000
   117  H          0.29020000       0.21310000       0.15450000
   118  H          0.70980000       0.71310000       0.34550000
   119  H          0.70980000       0.78690000       0.84550000
   120  H          0.29020000       0.28690000       0.65450000
   121  C          0.03979000       0.15473000       0.00536000
   122  C          0.96021000       0.65473000       0.49464000
   123  C          0.96021000       0.84527000      -0.00536000
   124  C          0.03979000       0.34527000       0.50536000
   125  H          0.96290000       0.12560000       0.02900000
   126  H          0.03710000       0.62560000       0.47100000
   127  H          0.03710000       0.87440000       0.97100000
   128  H          0.96290000       0.37440000       0.52900000
   129  H          0.01230000       0.15450000       0.92060000
   130  H         -0.01230000       0.65450000       0.57940000
   131  H         -0.01230000       0.84550000       0.07940000
   132  H          0.01230000       0.34550000       0.42060000
   133  H          0.00790000       0.19190000       0.03080000
   134  H         -0.00790000       0.69190000       0.46920000
   135  H         -0.00790000       0.80810000       0.96920000
   136  H          0.00790000       0.30810000       0.53080000
