data_XEGZUH
_symmetry_space_group_name_H-M    'P1'
_symmetry_Int_Tables_number       1
loop_
_symmetry_equiv_pos_site_id
_symmetry_equiv_pos_as_xyz
1 x,y,z
_cell_length_a                   10.15953
_cell_length_b                   7.89133
_cell_length_c                   23.66688
_cell_angle_alpha                90.0
_cell_angle_beta                 96.3253
_cell_angle_gamma                90.0
loop_
_atom_site_label
_atom_site_type_symbol
_atom_site_fract_x
_atom_site_fract_y
_atom_site_fract_z
     1  S          0.37914400       0.33733500       0.31213616
     2  S          0.12085600       0.83733500       0.18786384
     3  S          0.62085600       0.66266500       0.68786384
     4  S          0.87914400       0.16266500       0.81213616
     5  O          0.30592140       0.49373160       0.29746500
     6  O          0.19407860      -0.00626840       0.20253500
     7  O          0.69407860       0.50626840       0.70253500
     8  O          0.80592140       0.00626840       0.79746500
     9  O          0.46840140       0.29640190       0.26979500
    10  O          0.03159860       0.79640190       0.23020500
    11  O          0.53159860       0.70359810       0.73020500
    12  O          0.96840140       0.20359810       0.76979500
    13  O          0.29344130       0.19838170       0.32340500
    14  O          0.20655870       0.69838170       0.17659500
    15  O          0.70655870       0.80161830       0.67659500
    16  O          0.79344130       0.30161830       0.82340500
    17  C          0.48465150       0.38032000       0.37582600
    18  C          0.01534850       0.88032000       0.12417400
    19  C          0.51534850       0.61968000       0.62417400
    20  C          0.98465150       0.11968000       0.87582600
    21  C          0.43328150       0.43282000       0.42560600
    22  C          0.06671850       0.93282000       0.07439400
    23  C          0.56671850       0.56718000       0.57439400
    24  C          0.93328150       0.06718000       0.92560600
    25  C          0.52422150       0.47210190       0.47424600
    26  C          0.97577850       0.97210190       0.02575400
    27  C          0.47577850       0.52789810       0.52575400
    28  C          0.02422150       0.02789810       0.97424600
    29  C          0.66294150       0.45542000       0.47206600
    30  C          0.83705850       0.95542000       0.02793400
    31  C          0.33705850       0.54458000       0.52793400
    32  C          0.16294150       0.04458000       0.97206600
    33  C          0.70779150       0.39652000       0.42131600
    34  C          0.79220850       0.89652000       0.07868400
    35  C          0.29220850       0.60348000       0.57868400
    36  C          0.20779150       0.10348000       0.92131600
    37  C          0.61955160       0.36092000       0.37398600
    38  C          0.88044840       0.86092000       0.12601400
    39  C          0.38044840       0.63908000       0.62601400
    40  C          0.11955160       0.13908000       0.87398600
    41  H          0.65060000       0.32500000       0.34060000
    42  H          0.84940000       0.82500000       0.15940000
    43  H          0.34940000       0.67500000       0.65940000
    44  H          0.15060000       0.17500000       0.84060000
    45  S          0.87949400       0.36349500       0.41626917
    46  S          0.62050600       0.86349500       0.08373083
    47  S          0.12050600       0.63650500       0.58373083
    48  S          0.37949400       0.13650500       0.91626917
    49  O          0.92056130       0.23058170       0.45723500
    50  O          0.57943870       0.73058170       0.04276500
    51  O          0.07943870       0.76941830       0.54276500
    52  O          0.42056130       0.26941830       0.95723500
    53  O          0.88865130       0.31158190       0.35784500
    54  O          0.61134870       0.81158190       0.14215500
    55  O          0.11134870       0.68841810       0.64215500
    56  O          0.38865130       0.18841810       0.85784500
    57  O          0.94345120       0.52434180       0.43019600
    58  O          0.55654880       0.02434180       0.06980400
    59  O          0.05654880       0.47565820       0.56980400
    60  O          0.44345120       0.97565820       0.93019600
    61  C          0.75139150       0.49922000       0.52118700
    62  C          0.74860850      -0.00078000       0.97881300
    63  C          0.24860850       0.50078000       0.47881300
    64  C          0.25139150       0.00078000       0.02118700
    65  C          0.70587160       0.55292000       0.56960700
    66  C          0.79412840       0.05292000       0.93039300
    67  C          0.29412840       0.44708000       0.43039300
    68  C          0.20587160       0.94708000       0.06960700
    69  H          0.76580000       0.58050000       0.60110000
    70  H          0.73420000       0.08050000       0.89890000
    71  H          0.23420000       0.41950000       0.39890000
    72  H          0.26580000       0.91950000       0.10110000
    73  H          0.84310000       0.49160000       0.52050000
    74  H          0.65690000      -0.00840000       0.97950000
    75  H          0.15690000       0.50840000       0.47950000
    76  H          0.34310000       0.00840000       0.02050000
    77  O          0.93535850       0.35622000       0.11303600
    78  O          0.56464150       0.85622000       0.38696400
    79  O          0.06464150       0.64378000       0.88696400
    80  O          0.43535850       0.14378000       0.61303600
    81  C          0.89428000       0.42313000       0.05776900
    82  C          0.60572000       0.92313000       0.44223100
    83  C          0.10572000       0.57687000       0.94223100
    84  C          0.39428000       0.07687000       0.55776900
    85  C          0.01642000       0.46593000       0.03002800
    86  C          0.48358000       0.96593000       0.46997200
    87  C          0.98358000       0.53407000       0.96997200
    88  C          0.51642000       0.03407000       0.53002800
    89  H          0.07230000       0.36720000       0.02940000
    90  H          0.42770000       0.86720000       0.47060000
    91  H          0.92770000       0.63280000       0.97060000
    92  H          0.57230000       0.13280000       0.52940000
    93  H          0.06480000       0.55200000       0.05260000
    94  H          0.43520000       0.05200000       0.44740000
    95  H          0.93520000       0.44800000       0.94740000
    96  H          0.56480000       0.94800000       0.55260000
    97  H          0.83890000       0.52490000       0.06080000
    98  H          0.66110000       0.02490000       0.43920000
    99  H          0.16110000       0.47510000       0.93920000
   100  H          0.33890000       0.97510000       0.56080000
   101  H          0.84160000       0.33810000       0.03570000
   102  H          0.65840000       0.83810000       0.46430000
   103  H          0.15840000       0.66190000       0.96430000
   104  H          0.34160000       0.16190000       0.53570000
   105  C          0.83068000       0.33913000       0.14808100
   106  C          0.66932000       0.83913000       0.35191900
   107  C          0.16932000       0.66087000       0.85191900
   108  C          0.33068000       0.16087000       0.64808100
   109  C          0.88738000       0.26713000       0.20458900
   110  C          0.61262000       0.76713000       0.29541100
   111  C          0.11262000       0.73287000       0.79541100
   112  C          0.38738000       0.23287000       0.70458900
   113  C          0.00322000       0.36863000       0.23347800
   114  C          0.49678000       0.86863000       0.26652200
   115  C         -0.00322000       0.63137000       0.76652200
   116  C          0.50322000       0.13137000       0.73347800
   117  N          0.12284160       0.35042000       0.20288700
   118  N          0.37715840       0.85042000       0.29711300
   119  N          0.87715840       0.64958000       0.79711300
   120  N          0.62284160       0.14958000       0.70288700
   121  H          0.18441700       0.42120000       0.21708000
   122  H          0.31558300       0.92120000       0.28292000
   123  H          0.81558300       0.57880000       0.78292000
   124  H          0.68441700       0.07880000       0.71708000
   125  H          0.10171800       0.37630000       0.16617000
   126  H          0.39828200       0.87630000       0.33383000
   127  H          0.89828200       0.62370000       0.83383000
   128  H          0.60171800       0.12370000       0.66617000
   129  H          0.15331800       0.24520000       0.20568000
   130  H          0.34668200       0.74520000       0.29432000
   131  H          0.84668200       0.75480000       0.79432000
   132  H          0.65331800       0.25480000       0.70568000
   133  H          0.02450000       0.33090000       0.27210000
   134  H          0.47550000       0.83090000       0.22790000
   135  H          0.97550000       0.66910000       0.72790000
   136  H          0.52450000       0.16910000       0.77210000
   137  H          0.98020000       0.48750000       0.23420000
   138  H          0.51980000      -0.01250000       0.26580000
   139  H          0.01980000       0.51250000       0.76580000
   140  H          0.48020000       0.01250000       0.73420000
   141  H          0.91600000       0.15210000       0.19990000
   142  H          0.58400000       0.65210000       0.30010000
   143  H          0.08400000       0.84790000       0.80010000
   144  H          0.41600000       0.34790000       0.69990000
   145  H          0.81660000       0.26730000       0.22880000
   146  H          0.68340000       0.76730000       0.27120000
   147  H          0.18340000       0.73270000       0.77120000
   148  H          0.31660000       0.23270000       0.72880000
   149  H          0.76270000       0.26490000       0.12920000
   150  H          0.73730000       0.76490000       0.37080000
   151  H          0.23730000       0.73510000       0.87080000
   152  H          0.26270000       0.23510000       0.62920000
   153  H          0.79370000       0.45040000       0.15390000
   154  H          0.70630000       0.95040000       0.34610000
   155  H          0.20630000       0.54960000       0.84610000
   156  H          0.29370000       0.04960000       0.65390000
   157  N          0.00992000       0.90288000       0.42337700
   158  N          0.49008000       0.40288000       0.07662300
   159  N         -0.00992000       0.09712000       0.57662300
   160  N          0.50992000       0.59712000       0.92337700
   161  C          0.02669180       0.87618000       0.36951700
   162  C          0.47330820       0.37618000       0.13048300
   163  C          0.97330820       0.12382000       0.63048300
   164  C          0.52669180       0.62382000       0.86951700
   165  N          0.06552000       0.72588000       0.35252700
   166  N          0.43448000       0.22588000       0.14747300
   167  N          0.93448000       0.27412000       0.64747300
   168  N          0.56552000       0.77412000       0.85252700
   169  H          0.05330000       0.63880000       0.37359000
   170  H          0.44670000       0.13880000       0.12641000
   171  H          0.94670000       0.36120000       0.62641000
   172  H          0.55330000       0.86120000       0.87359000
   173  H          0.06630000       0.70770000       0.31667000
   174  H          0.43370000       0.20770000       0.18333000
   175  H          0.93370000       0.29230000       0.68333000
   176  H          0.56630000       0.79230000       0.81667000
   177  N          0.00651190       0.00012000       0.33204700
   178  N          0.49348810       0.50012000       0.16795300
   179  N         -0.00651190      -0.00012000       0.66795300
   180  N          0.50651190       0.49988000       0.83204700
   181  H          0.01720000       0.97670000       0.29767000
   182  H          0.48280000       0.47670000       0.20233000
   183  H          0.98280000       0.02330000       0.70233000
   184  H          0.51720000       0.52330000       0.79767000
   185  H          0.97680000       0.09520000       0.34188000
   186  H          0.52320000       0.59520000       0.15812000
   187  H          0.02320000       0.90480000       0.65812000
   188  H          0.47680000       0.40480000       0.84188000
   189  H          0.98380000       0.00120000       0.43378000
   190  H          0.51620000       0.50120000       0.06622000
   191  H          0.01620000      -0.00120000       0.56622000
   192  H          0.48380000       0.49880000       0.93378000
   193  H          0.02530000       0.82280000       0.44768000
   194  H          0.47470000       0.32280000       0.05232000
   195  H          0.97470000       0.17720000       0.55232000
   196  H          0.52530000       0.67720000       0.94768000
