data_XEHJIE
_symmetry_space_group_name_H-M    'P1'
_symmetry_Int_Tables_number       1
loop_
_symmetry_equiv_pos_site_id
_symmetry_equiv_pos_as_xyz
1 x,y,z
_cell_length_a                   12.5683
_cell_length_b                   13.5903
_cell_length_c                   13.8293
_cell_angle_alpha                70.6974
_cell_angle_beta                 66.7184
_cell_angle_gamma                67.6014
loop_
_atom_site_label
_atom_site_type_symbol
_atom_site_fract_x
_atom_site_fract_y
_atom_site_fract_z
     1  Br         0.27174900       0.19269700       0.30653700
     2  Br         0.72825100       0.80730300       0.69346300
     3  Br         0.12568700       0.04647700       0.27397700
     4  Br         0.87431300       0.95352300       0.72602300
     5  O          0.55754000       0.82853000       0.06673000
     6  O          0.44246000       0.17147000       0.93327000
     7  O          0.68804000       0.61533000       0.06683000
     8  O          0.31196000       0.38467000       0.93317000
     9  O          0.91994000       0.65674000       0.01883000
    10  O          0.08006000       0.34326000       0.98117000
    11  O          0.89704000       0.82304000       0.11624000
    12  O          0.10296000       0.17696000       0.88376000
    13  O          0.66724000       0.93733000       0.09383000
    14  O          0.33276000       0.06267000       0.90617000
    15  C          0.50386000       0.75385000       0.06355000
    16  C          0.49614000       0.24615000       0.93645000
    17  H          0.44430000       0.79150000       0.02540000
    18  H          0.55570000       0.20850000       0.97460000
    19  H          0.46450000       0.71940000       0.13590000
    20  H          0.53550000       0.28060000       0.86410000
    21  C          0.60576000       0.67105000       0.00555000
    22  C          0.39424000       0.32895000      -0.00555000
    23  H          0.57490000       0.61970000      -0.00260000
    24  H          0.42510000       0.38030000       0.00260000
    25  H          0.64670000       0.70650000       0.93430000
    26  H          0.35330000       0.29350000       0.06570000
    27  C          0.80566000       0.55956000       0.00646000
    28  C          0.19434000       0.44044000      -0.00646000
    29  H          0.79730000       0.52950000       0.95600000
    30  H          0.20270000       0.47050000       0.04400000
    31  H          0.84300000       0.49920000       0.05530000
    32  H          0.15700000       0.50080000       0.94470000
    33  C          0.88646000       0.63166000       0.94564000
    34  C          0.11354000       0.36834000       0.05436000
    35  H          0.95810000       0.59500000       0.89490000
    36  H          0.04190000       0.40500000       0.10510000
    37  H          0.84450000       0.69810000       0.90540000
    38  H          0.15550000       0.30190000       0.09460000
    39  C          0.99406000       0.72896000       0.96884000
    40  C          0.00594000       0.27104000       0.03116000
    41  H          0.95610000       0.79310000       0.92340000
    42  H          0.04390000       0.20690000       0.07660000
    43  H          0.07230000       0.69300000       0.92430000
    44  H          0.92770000       0.30700000       0.07570000
    45  C          0.00916000       0.76097000       0.05447000
    46  C          0.99084000       0.23903000       0.94553000
    47  H          0.04250000       0.69590000       0.10190000
    48  H          0.95750000       0.30410000       0.89810000
    49  H          0.06600000       0.80360000       0.02150000
    50  H          0.93400000       0.19640000       0.97850000
    51  C          0.86487000       0.93516000       0.06737000
    52  C          0.13513000       0.06484000       0.93263000
    53  H          0.88070000       0.94350000      -0.00920000
    54  H          0.11930000       0.05650000       0.00920000
    55  H          0.91310000       0.97100000       0.07580000
    56  H          0.08690000       0.02900000       0.92420000
    57  C          0.73436000       0.98596000       0.11836000
    58  C          0.26564000       0.01404000       0.88164000
    59  H          0.71650000       0.97290000       0.19560000
    60  H          0.28350000       0.02710000       0.80440000
    61  H          0.71300000       0.06390000       0.09000000
    62  H          0.28700000       0.93610000       0.91000000
    63  C          0.54496000       0.96975000       0.13635000
    64  C          0.45504000       0.03025000       0.86365000
    65  C          0.47996000       0.05315000       0.19115000
    66  C          0.52004000       0.94685000       0.80885000
    67  H          0.51950000       0.09240000       0.20160000
    68  H          0.48050000       0.90760000       0.79840000
    69  C          0.35637000       0.07745000       0.23005000
    70  C          0.64363000       0.92255000       0.76995000
    71  C          0.29596000       0.02115000       0.21635000
    72  C          0.70404000       0.97885000       0.78365000
    73  C          0.35936000       0.93695000       0.16065000
    74  C          0.64064000       0.06305000       0.83935000
    75  H          0.31840000       0.89900000       0.15000000
    76  H          0.68160000       0.10100000       0.85000000
    77  C          0.48416000       0.91065000       0.12145000
    78  C          0.51584000       0.08935000       0.87855000
    79  Br         0.10061800       0.74471900       0.31334100
    80  Br         0.89938200       0.25528100       0.68665900
    81  Br         0.26009900       0.50512900       0.23460900
    82  Br         0.73990100       0.49487100       0.76539100
    83  O          0.59974000       0.51793000       0.35523000
    84  O          0.40026000       0.48207000       0.64477000
    85  O          0.85164000       0.46724000       0.27953000
    86  O          0.14836000       0.53276000       0.72047000
    87  O          0.83924000       0.62884000       0.37654000
    88  O          0.16076000       0.37116000       0.62346000
    89  O          0.62844000       0.81894000       0.38294000
    90  O          0.37156000       0.18106000       0.61706000
    91  O          0.48104000       0.69893000       0.41333000
    92  O          0.51896000       0.30107000       0.58667000
    93  C          0.67386000       0.42015000       0.31736000
    94  C          0.32614000       0.57985000       0.68264000
    95  H          0.68930000       0.43280000       0.24030000
    96  H          0.31070000       0.56720000       0.75970000
    97  H          0.63370000       0.36340000       0.35310000
    98  H          0.36630000       0.63660000       0.64690000
    99  C          0.78886000       0.38725000       0.34176000
   100  C          0.21114000       0.61275000       0.65824000
   101  H          0.77220000       0.38100000       0.41790000
   102  H          0.22780000       0.61900000       0.58210000
   103  H          0.83840000       0.31680000       0.32420000
   104  H          0.16160000       0.68320000       0.67580000
   105  C          0.94277000       0.46317000       0.31847000
   106  C          0.05723000       0.53683000       0.68153000
   107  H          0.00010000       0.49800000       0.26040000
   108  H         -0.00010000       0.50200000       0.73960000
   109  H          0.98600000       0.38750000       0.34020000
   110  H          0.01400000       0.61250000       0.65980000
   111  C          0.89328000       0.51737000       0.41167000
   112  C          0.10672000       0.48263000       0.58833000
   113  H          0.83360000       0.48480000       0.46950000
   114  H          0.16640000       0.51520000       0.53050000
   115  H          0.95780000       0.50810000       0.43830000
   116  H          0.04220000       0.49190000       0.56170000
   117  C          0.78597000       0.68857000       0.45906000
   118  C          0.21403000       0.31143000       0.54094000
   119  H          0.84720000       0.68370000       0.48780000
   120  H          0.15280000       0.31630000       0.51220000
   121  H          0.72480000       0.65810000       0.51710000
   122  H          0.27520000       0.34190000       0.48290000
   123  C          0.72988000       0.80447000       0.41476000
   124  C          0.27012000       0.19553000       0.58524000
   125  H          0.70360000       0.84670000       0.46880000
   126  H          0.29640000       0.15330000       0.53120000
   127  H          0.79010000       0.83220000       0.35290000
   128  H          0.20990000       0.16780000       0.64710000
   129  C          0.51767000       0.82456000       0.46836000
   130  C          0.48233000       0.17544000       0.53164000
   131  H          0.48540000       0.89510000       0.48720000
   132  H          0.51460000       0.10490000       0.51280000
   133  H          0.53090000       0.76900000       0.53140000
   134  H          0.46910000       0.23100000       0.46860000
   135  C          0.43116000       0.80695000       0.43225000
   136  C          0.56884000       0.19305000       0.56775000
   137  H          0.35270000       0.81470000       0.48720000
   138  H          0.64730000       0.18530000       0.51280000
   139  H          0.42110000       0.85950000       0.36660000
   140  H          0.57890000       0.14050000       0.63340000
   141  C          0.42295000       0.66195000       0.37495000
   142  C          0.57705000       0.33805000       0.62505000
   143  C          0.30836000       0.71485000       0.36545000
   144  C          0.69164000       0.28515000       0.63455000
   145  H          0.26450000       0.78100000       0.38650000
   146  H          0.73550000       0.21900000       0.61350000
   147  C          0.25886000       0.66806000       0.32386000
   148  C          0.74114000       0.33194000       0.67614000
   149  C          0.32226000       0.57226000       0.29266000
   150  C          0.67774000       0.42774000       0.70734000
   151  C          0.43696000       0.51855000       0.30165000
   152  C          0.56304000       0.48145000       0.69835000
   153  H          0.47980000       0.45270000       0.27960000
   154  H          0.52020000       0.54730000       0.72040000
   155  C          0.48765000       0.56215000       0.34315000
   156  C          0.51235000       0.43785000       0.65685000
   157  Br         0.83572900       0.03572900       0.38698120
   158  Br         0.16427100       0.96427100       0.61301880
   159  Br         0.73873800       0.16895800       0.24797900
   160  Br         0.26126200       0.83104200       0.75202100
   161  Br         0.64108110       0.30648110       0.10678120
   162  Br         0.35891890       0.69351890       0.89321880
   163  O          0.72195000       0.69915000       0.21535000
   164  O          0.27805000       0.30085000       0.78465000
   165  H          0.68260000       0.70360000       0.17650000
   166  H          0.31740000       0.29640000       0.82350000
   167  H          0.75170000       0.63730000       0.25260000
   168  H          0.24830000       0.36270000       0.74740000
   169  H          0.77650000       0.73260000       0.19560000
   170  H          0.22350000       0.26740000       0.80440000
