data_XEHWAM
_symmetry_space_group_name_H-M    'P1'
_symmetry_Int_Tables_number       1
loop_
_symmetry_equiv_pos_site_id
_symmetry_equiv_pos_as_xyz
1 x,y,z
_cell_length_a                   8.3902
_cell_length_b                   18.8134
_cell_length_c                   9.5402
_cell_angle_alpha                90.0
_cell_angle_beta                 102.543
_cell_angle_gamma                90.0
loop_
_atom_site_label
_atom_site_type_symbol
_atom_site_fract_x
_atom_site_fract_y
_atom_site_fract_z
     1  S          0.02580300       0.83673200       0.61714300
     2  S          0.97419700       0.33673200       0.88285700
     3  S          0.97419700       0.16326800       0.38285700
     4  S          0.02580300       0.66326800       0.11714300
     5  S          0.10351500       0.83940200       0.29312400
     6  S          0.89648500       0.33940200       0.20687600
     7  S          0.89648500       0.16059800       0.70687600
     8  S          0.10351500       0.66059800       0.79312400
     9  O          0.03847110       0.85982500       0.76356900
    10  O          0.96152890       0.35982500       0.73643100
    11  O          0.96152890       0.14017500       0.23643100
    12  O          0.03847110       0.64017500       0.26356900
    13  O          0.14592110       0.78654500       0.58867100
    14  O          0.85407890       0.28654500       0.91132900
    15  O          0.85407890       0.21345500       0.41132900
    16  O          0.14592110       0.71345500       0.08867100
    17  N          0.37918140       0.69960700       0.44500140
    18  N          0.62081860       0.19960700       0.05499860
    19  N          0.62081860       0.30039300       0.55499860
    20  N          0.37918140       0.80039300       0.94500140
    21  H          0.36320000       0.66841000       0.37720000
    22  H          0.63680000       0.16841000       0.12280000
    23  H          0.63680000       0.33159000       0.62280000
    24  H          0.36320000       0.83159000       0.87720000
    25  H          0.29420000       0.72191000       0.45820000
    26  H          0.70580000       0.22191000       0.04180000
    27  H          0.70580000       0.27809000       0.54180000
    28  H          0.29420000       0.77809000       0.95820000
    29  N          0.02965130       0.90967500       0.52813110
    30  N          0.97034870       0.40967500       0.97186890
    31  N          0.97034870       0.09032500       0.47186890
    32  N          0.02965130       0.59032500       0.02813110
    33  N          0.06172160       0.97130600       0.32635120
    34  N          0.93827840       0.47130600       0.17364880
    35  N          0.93827840       0.02869400       0.67364880
    36  N          0.06172160       0.52869400       0.82635120
    37  H          0.03720000       0.01121100       0.36620000
    38  H          0.96280000       0.51121100       0.13380000
    39  H          0.96280000       0.98878900       0.63380000
    40  H          0.03720000       0.48878900       0.86620000
    41  C          0.52643150       0.73410700       0.47777130
    42  C          0.47356850       0.23410700       0.02222870
    43  C          0.47356850       0.26589300       0.52222870
    44  C          0.52643150       0.76589300       0.97777130
    45  C          0.54639150       0.79736700       0.55813140
    46  C          0.45360850       0.29736700       0.94186860
    47  C          0.45360850       0.20263300       0.44186860
    48  C          0.54639150       0.70263300       0.05813140
    49  H          0.45503400       0.81843900       0.58584100
    50  H          0.54496600       0.31843900       0.91415900
    51  H          0.54496600       0.18156100       0.41415900
    52  H          0.45503400       0.68156100       0.08584100
    53  C          0.69804150       0.82903700       0.59699140
    54  C          0.30195850       0.32903700       0.90300860
    55  C          0.30195850       0.17096300       0.40300860
    56  C          0.69804150       0.67096300       0.09699140
    57  H          0.71047900       0.87175900       0.65136600
    58  H          0.28952100       0.37175900       0.84863400
    59  H          0.28952100       0.12824100       0.34863400
    60  H          0.71047900       0.62824100       0.15136600
    61  C          0.83324140       0.79861600       0.55682120
    62  C          0.16675860       0.29861600       0.94317880
    63  C          0.16675860       0.20138400       0.44317880
    64  C          0.83324140       0.70138400       0.05682120
    65  C          0.81484150       0.73720600       0.47299140
    66  C          0.18515850       0.23720600       0.02700860
    67  C          0.18515850       0.26279400       0.52700860
    68  C          0.81484150       0.76279400       0.97299140
    69  H          0.90590100       0.71730300       0.44278900
    70  H          0.09409900       0.21730300       0.05721100
    71  H          0.09409900       0.28269700       0.55721100
    72  H          0.90590100       0.78269700       0.94278900
    73  C          0.66252160       0.70544700       0.43410140
    74  C          0.33747840       0.20544700       0.06589860
    75  C          0.33747840       0.29455300       0.56589860
    76  C          0.66252160       0.79455300       0.93410140
    77  H          0.64994400       0.66360800       0.37697500
    78  H          0.35005600       0.16360800       0.12302500
    79  H          0.35005600       0.33639200       0.62302500
    80  H          0.64994400       0.83639200       0.87697500
    81  C          0.06126160       0.90981600       0.39824130
    82  C          0.93873840       0.40981600       0.10175870
    83  C          0.93873840       0.09018400       0.60175870
    84  C          0.06126160       0.59018400       0.89824130
    85  C          0.09182000       0.96485800       0.19004160
    86  C          0.90818000       0.46485800       0.30995840
    87  C          0.90818000       0.03514200       0.80995840
    88  C          0.09182000       0.53514200       0.69004160
    89  H          0.09510000       0.00416900       0.12825100
    90  H          0.90490000       0.50416900       0.37174900
    91  H          0.90490000      -0.00416900       0.87174900
    92  H          0.09510000       0.49583100       0.62825100
    93  C          0.11573000       0.89746900       0.15403170
    94  C          0.88427000       0.39746900       0.34596830
    95  C          0.88427000       0.10253100       0.84596830
    96  C          0.11573000       0.60253100       0.65403170
    97  H          0.13665600       0.88325500       0.06417600
    98  H          0.86334400       0.38325500       0.43582400
    99  H          0.86334400       0.11674500       0.93582400
   100  H          0.13665600       0.61674500       0.56417600
   101  N          0.41211170       0.55506700       0.28167160
   102  N          0.58788830       0.05506700       0.21832840
   103  N          0.58788830       0.44493300       0.71832840
   104  N          0.41211170       0.94493300       0.78167160
   105  N          0.48633000       0.52609900       0.18572000
   106  N          0.51367000       0.02609900       0.31428000
   107  N          0.51367000       0.47390100       0.81428000
   108  N          0.48633000       0.97390100       0.68572000
   109  C          0.47933000       0.45603100       0.16633000
   110  C          0.52067000       0.95603100       0.33367000
   111  C          0.52067000       0.54396900       0.83367000
   112  C          0.47933000       0.04396900       0.66633000
   113  H          0.53177700       0.43661100       0.09612900
   114  H          0.46822300       0.93661100       0.40387100
   115  H          0.46822300       0.56338900       0.90387100
   116  H          0.53177700       0.06338900       0.59612900
   117  C          0.40152000       0.40993800       0.24065170
   118  C          0.59848000       0.90993800       0.25934830
   119  C          0.59848000       0.59006200       0.75934830
   120  C          0.40152000       0.09006200       0.74065170
   121  H          0.40035200       0.36008400       0.22450000
   122  H          0.59964800       0.86008400       0.27550000
   123  H          0.59964800       0.63991600       0.77550000
   124  H          0.40035200       0.13991600       0.72450000
   125  C          0.32683000       0.43944100       0.33792000
   126  C          0.67317000       0.93944100       0.16208000
   127  C          0.67317000       0.56055900       0.66208000
   128  C          0.32683000       0.06055900       0.83792000
   129  H          0.26946700       0.41116500       0.39315500
   130  H          0.73053300       0.91116500       0.10684500
   131  H          0.73053300       0.58883500       0.60684500
   132  H          0.26946700       0.08883500       0.89315500
   133  C          0.33673000       0.51303100       0.35432000
   134  C          0.66327000       0.01303100       0.14568000
   135  C          0.66327000       0.48696900       0.64568000
   136  C          0.33673000       0.98696900       0.85432000
   137  H          0.28482700       0.53398800       0.42325700
   138  H          0.71517300       0.03398800       0.07674300
   139  H          0.71517300       0.46601200       0.57674300
   140  H          0.28482700       0.96601200       0.92325700
