data_XEJWOZ
_symmetry_space_group_name_H-M    'P1'
_symmetry_Int_Tables_number       1
loop_
_symmetry_equiv_pos_site_id
_symmetry_equiv_pos_as_xyz
1 x,y,z
_cell_length_a                   10.59124
_cell_length_b                   10.89674
_cell_length_c                   11.66545
_cell_angle_alpha                87.7573
_cell_angle_beta                 79.7243
_cell_angle_gamma                62.0522
loop_
_atom_site_label
_atom_site_type_symbol
_atom_site_fract_x
_atom_site_fract_y
_atom_site_fract_z
     1  O          0.48903100       0.47110100       0.36005900
     2  O          0.51096900       0.52889900       0.63994100
     3  N          0.75195130       0.12650130       0.32823110
     4  N          0.24804870       0.87349870       0.67176890
     5  N          0.58099130       0.33664120       0.32697110
     6  N          0.41900870       0.66335880       0.67302890
     7  C          0.67928160       0.25055160       0.38668140
     8  C          0.32071840       0.74944840       0.61331860
     9  H          0.69570000       0.27270000       0.45870000
    10  H          0.30430000       0.72730000       0.54130000
    11  C          0.58717150       0.26819150       0.22614130
    12  C          0.41282850       0.73180850       0.77385870
    13  C          0.69637150       0.13499150       0.22728130
    14  C          0.30362850       0.86500850       0.77271870
    15  C          0.85824160       0.00100160       0.37525140
    16  C          0.14175840      -0.00100160       0.62474860
    17  H          0.85140000       0.91970000       0.34820000
    18  H          0.14860000       0.08030000       0.65180000
    19  H          0.83170000       0.00920000       0.46140000
    20  H          0.16830000      -0.00920000       0.53860000
    21  C          0.01388160       0.97352840       0.34158130
    22  C          0.98611840       0.02647160       0.65841870
    23  C          0.05305170       0.07847170       0.32370150
    24  C          0.94694830       0.92152830       0.67629850
    25  H          0.98000000       0.17290000       0.32980000
    26  H          0.02000000       0.82710000       0.67020000
    27  C          0.19878180       0.04611190       0.29687150
    28  C          0.80121820       0.95388810       0.70312850
    29  H          0.22500000       0.11850000       0.28380000
    30  H          0.77500000       0.88150000       0.71620000
    31  C          0.30541180       0.90938000       0.28910150
    32  C          0.69458820       0.09062000       0.71089850
    33  H          0.40500000       0.88750000       0.27150000
    34  H          0.59500000       0.11250000       0.72850000
    35  C          0.26708180       0.80434810       0.30698150
    36  C          0.73291820       0.19565190       0.69301850
    37  H          0.34040000       0.71000000       0.30120000
    38  H          0.65960000       0.29000000       0.69880000
    39  C          0.12248170       0.83615830       0.33319140
    40  C          0.87751830       0.16384170       0.66680860
    41  H          0.09690000       0.76340000       0.34560000
    42  H          0.90310000       0.23660000       0.65440000
    43  C          0.48652160       0.33684150       0.14424130
    44  C          0.51347840       0.66315850       0.85575870
    45  C          0.33884160       0.42170160       0.18597140
    46  C          0.66115840       0.57829840       0.81402860
    47  H          0.30280000       0.43480000       0.26760000
    48  H          0.69720000       0.56520000       0.73240000
    49  C          0.24472180       0.48677170       0.10884150
    50  C          0.75527820       0.51322830       0.89115850
    51  H          0.14450000       0.54540000       0.13770000
    52  H          0.85550000       0.45460000       0.86230000
    53  C          0.29567190       0.46693170      -0.00948150
    54  C          0.70432810       0.53306830       0.00948150
    55  H          0.23060000       0.51190000       0.93790000
    56  H          0.76940000       0.48810000       0.06210000
    57  C          0.44139190       0.38174170       0.94803860
    58  C          0.55860810       0.61825830       0.05196140
    59  H          0.47610000       0.36760000       0.86630000
    60  H          0.52390000       0.63240000       0.13370000
    61  C          0.53681170       0.31698160       0.02429130
    62  C          0.46318830       0.68301840       0.97570870
    63  H          0.63700000       0.25880000      -0.00530000
    64  H          0.36300000       0.74120000       0.00530000
    65  C          0.74891160       0.01504150       0.14467130
    66  C          0.25108840      -0.01504150       0.85532870
    67  C          0.65067180       0.97764830       0.11204150
    68  C          0.34932820       0.02235170       0.88795850
    69  H          0.55030000       0.02810000       0.14470000
    70  H          0.44970000       0.97190000       0.85530000
    71  C          0.69902000       0.86730820       0.03215170
    72  C          0.30098000       0.13269180       0.96784830
    73  H          0.63150000       0.84260000       0.00990000
    74  H          0.36850000       0.15740000      -0.00990000
    75  C          0.84422000       0.79336820       0.98496840
    76  C          0.15578000       0.20663180       0.01503160
    77  H          0.87690000       0.71750000       0.93040000
    78  H          0.12310000       0.28250000       0.06960000
    79  C          0.94292000       0.82907820       0.01666150
    80  C          0.05708000       0.17092180       0.98333850
    81  H          0.04330000       0.77790000       0.98390000
    82  H          0.95670000       0.22210000       0.01610000
    83  C          0.89537170       0.93943840       0.09606140
    84  C          0.10462830       0.06056160       0.90393860
    85  H          0.96340000       0.96380000       0.11760000
    86  H          0.03660000       0.03620000       0.88240000
    87  F          0.32977120       0.16721110       0.60617100
    88  F          0.67022880       0.83278890       0.39382900
    89  F          0.38272140       0.22841120       0.43490100
    90  F          0.61727860       0.77158880       0.56509900
    91  F          0.16014130       0.29358130       0.51211110
    92  F          0.83985870       0.70641870       0.48788890
    93  F          0.14745120       0.38475130       0.76667900
    94  F          0.85254880       0.61524870       0.23332100
    95  F          0.15887120       0.57588120       0.73930900
    96  F          0.84112880       0.42411880       0.26069100
    97  F          0.02162110       0.53193140       0.65184100
    98  F          0.97837890       0.46806860       0.34815900
    99  O          0.40700120       0.35941120       0.62702110
   100  O          0.59299880       0.64058880       0.37297890
   101  H          0.42620000       0.43020000       0.62821700
   102  H          0.57380000       0.56980000       0.37178300
   103  O          0.25636120       0.50303110       0.50227100
   104  O          0.74363880       0.49696890       0.49772900
   105  H          0.34430000       0.48320000       0.45420000
   106  H          0.65570000       0.51680000       0.54580000
   107  C          0.28772000       0.27224190       0.53494160
   108  C          0.71228000       0.72775810       0.46505840
   109  C          0.27959160       0.40478170       0.58541140
   110  C          0.72040840       0.59521830       0.41458860
   111  C          0.14967190       0.47392000       0.68585160
   112  C          0.85032810       0.52608000       0.31414840
