data_XEKSOY
_symmetry_space_group_name_H-M    'P1'
_symmetry_Int_Tables_number       1
loop_
_symmetry_equiv_pos_site_id
_symmetry_equiv_pos_as_xyz
1 x,y,z
_cell_length_a                   11.21853
_cell_length_b                   13.15764
_cell_length_c                   13.44005
_cell_angle_alpha                111.2043
_cell_angle_beta                 93.9693
_cell_angle_gamma                112.7873
loop_
_atom_site_label
_atom_site_type_symbol
_atom_site_fract_x
_atom_site_fract_y
_atom_site_fract_z
     1  N          0.95451900       0.14976900       0.34115800
     2  N          0.04548100       0.85023100       0.65884200
     3  N          0.74403900       0.85723100       0.25915800
     4  N          0.25596100       0.14276900       0.74084200
     5  O          0.00430100       0.15533900       0.08707800
     6  O         -0.00430100       0.84466100       0.91292200
     7  O          0.05925900       0.28160800       0.26755700
     8  O          0.94074100       0.71839200       0.73244300
     9  O          0.37069100       0.13653900       0.30777800
    10  O          0.62930900       0.86346100       0.69222200
    11  O          0.69628900       0.74911100       0.97155300
    12  O          0.30371100       0.25088900       0.02844700
    13  O          0.63646100       0.68249200       0.10180700
    14  O          0.36353900       0.31750800       0.89819300
    15  O          0.27748110       0.84435900       0.40877800
    16  O          0.72251890       0.15564100       0.59122200
    17  C          0.92407880       0.07877110       0.22333100
    18  C          0.07592120       0.92122890       0.77666900
    19  C         -0.00236130       0.16896120       0.17895110
    20  C          0.00236130       0.83103880       0.82104890
    21  C          0.02745120       0.25939120       0.35931100
    22  C          0.97254880       0.74060880       0.64068900
    23  C          0.08456130       0.36580120       0.46538110
    24  C          0.91543870       0.63419880       0.53461890
    25  C          0.15208150       0.48274130       0.47245140
    26  C          0.84791850       0.51725870       0.52754860
    27  H          0.16190000       0.49540000       0.40760000
    28  H          0.83810000       0.50460000       0.59240000
    29  C          0.20518180       0.58118150       0.57531170
    30  C          0.79481820       0.41881850       0.42468830
    31  H          0.25160000       0.66140000       0.58080000
    32  H          0.74840000       0.33860000       0.41920000
    33  C          0.19072000       0.56289180       0.66874160
    34  C          0.80928000       0.43710820       0.33125840
    35  H          0.22810000       0.63040000       0.73880000
    36  H          0.77190000       0.36960000       0.26120000
    37  C          0.12242000       0.44750180       0.66169150
    38  C          0.87758000       0.55249820       0.33830850
    39  H          0.11160000       0.43560000       0.72680000
    40  H          0.88840000       0.56440000       0.27320000
    41  C          0.06940170       0.34868150       0.56040120
    42  C          0.93059830       0.65131850       0.43959880
    43  H          0.02250000       0.26900000       0.55590000
    44  H          0.97750000       0.73100000       0.44410000
    45  C          0.77156880       0.00125110       0.16532100
    46  C          0.22843120      -0.00125110       0.83467900
    47  H          0.76210000      -0.01000000       0.08700000
    48  H          0.23790000       0.01000000       0.91300000
    49  C          0.66881880       0.04044110       0.20617100
    50  C          0.33118120       0.95955890       0.79382900
    51  C          0.59892870       0.06957120       0.14044100
    52  C          0.40107130       0.93042880       0.85955900
    53  H          0.61990000       0.06670000       0.07250000
    54  H          0.38010000       0.93330000       0.92750000
    55  C          0.49909870       0.10288120       0.17119110
    56  C          0.50090130       0.89711880       0.82880890
    57  H          0.45300000       0.12300000       0.12510000
    58  H          0.54700000       0.87700000       0.87490000
    59  C          0.46755870       0.10639110       0.26947100
    60  C          0.53244130       0.89360890       0.73052900
    61  C          0.53736870       0.07857120       0.33743100
    62  C          0.46263130       0.92142880       0.66256900
    63  H          0.51590000       0.08130000       0.40520000
    64  H          0.48410000       0.91870000       0.59480000
    65  C          0.63740870       0.04715120       0.30657100
    66  C          0.36259130       0.95284880       0.69342900
    67  H          0.68550000       0.02990000       0.35400000
    68  H          0.31450000       0.97010000       0.64600000
    69  C          0.30008850       0.16816150       0.24150140
    70  C          0.69991150       0.83183850       0.75849860
    71  H          0.23620000       0.19120000       0.27850000
    72  H          0.76380000       0.80880000       0.72150000
    73  H          0.25210000       0.09830000       0.17020000
    74  H          0.74790000       0.90170000       0.82980000
    75  H          0.36320000       0.23680000       0.23010000
    76  H          0.63680000       0.76320000       0.76990000
    77  C          0.78106880       0.88740890       0.16846100
    78  C          0.21893120       0.11259110       0.83153900
    79  C          0.70429870       0.77031880       0.06677100
    80  C          0.29570130       0.22968120       0.93322900
    81  C          0.66582870       0.74420890       0.21720100
    82  C          0.33417130       0.25579110       0.78279900
    83  C          0.59793870       0.66985890       0.27310100
    84  C          0.40206130       0.33014110       0.72689900
    85  C          0.49225850       0.55491870       0.21452120
    86  C          0.50774150       0.44508130       0.78547880
    87  H          0.46750000       0.52120000       0.13640000
    88  H          0.53250000       0.47880000       0.86360000
    89  C          0.42321840       0.48962870       0.26953120
    90  C          0.57678160       0.51037130       0.73046880
    91  H          0.34960000       0.41200000       0.22940000
    92  H          0.65040000       0.58800000       0.77060000
    93  C          0.46121840       0.53705860       0.38275120
    94  C          0.53878160       0.46294140       0.61724880
    95  H          0.41440000       0.49160000       0.42040000
    96  H          0.58560000       0.50840000       0.57960000
    97  C          0.56718840       0.65057870       0.44140120
    98  C          0.43281160       0.34942130       0.55859880
    99  H          0.59330000       0.68270000       0.51930000
   100  H          0.40670000       0.31730000       0.48070000
   101  C          0.63531850       0.71762870       0.38744110
   102  C          0.36468150       0.28237130       0.61255890
   103  H          0.70740000       0.79610000       0.42810000
   104  H          0.29260000       0.20390000       0.57190000
   105  C          0.93531880       0.95582890       0.18230100
   106  C          0.06468120       0.04417110       0.81769900
   107  H          0.95120000       0.93760000       0.10680000
   108  H          0.04880000       0.06240000       0.89320000
   109  C          0.02809120       0.93006890       0.24428100
   110  C          0.97190880       0.06993110       0.75571900
   111  C          0.08648130       0.85977880       0.18511100
   112  C          0.91351870       0.14022120       0.81488900
   113  H          0.06960000       0.83300000       0.10750000
   114  H          0.93040000       0.16700000       0.89250000
   115  C          0.16889140       0.82745880       0.23589110
   116  C          0.83110860       0.17254120       0.76410890
   117  H          0.20610000       0.77780000       0.19340000
   118  H          0.79390000       0.22220000       0.80660000
   119  C          0.19619130       0.86840880       0.34930110
   120  C          0.80380870       0.13159120       0.65069890
   121  C          0.13870130       0.93893880       0.41027100
   122  C          0.86129870       0.06106120       0.58972900
   123  H          0.15740000       0.96700000       0.48800000
   124  H          0.84260000       0.03300000       0.51200000
   125  C          0.05468130       0.96844880       0.35864100
   126  C          0.94531870       0.03155120       0.64135900
   127  H          0.01450000       0.01520000       0.40110000
   128  H         -0.01450000      -0.01520000       0.59890000
   129  C          0.33734190       0.77152830       0.34879140
   130  C          0.66265810       0.22847170       0.65120860
   131  H          0.38840000       0.75670000       0.39950000
   132  H          0.61160000       0.24330000       0.60050000
   133  H          0.39710000       0.81410000       0.31220000
   134  H          0.60290000       0.18590000       0.68780000
   135  H          0.26770000       0.69370000       0.29350000
   136  H          0.73230000       0.30630000       0.70650000
   137  O          0.21794100       0.57901100       0.06142800
   138  O          0.78205900       0.42098900       0.93857200
   139  C          0.30130170       0.59700830      -0.01071130
   140  C          0.69869830       0.40299170       0.01071130
   141  H          0.24770000       0.55100000       0.91220000
   142  H          0.75230000       0.44900000       0.08780000
   143  H          0.36850000       0.56730000      -0.00260000
   144  H          0.63150000       0.43270000       0.00260000
   145  C          0.14485180       0.45543860       0.03999140
   146  C          0.85514820       0.54456140       0.96000860
   147  H          0.20690000       0.42140000       0.05090000
   148  H          0.79310000       0.57860000       0.94910000
   149  H          0.09190000       0.40860000       0.96270000
   150  H          0.90810000       0.59140000       0.03730000
   151  C          0.05462000       0.44471820       0.11544170
   152  C          0.94538000       0.55528180       0.88455830
   153  H         -0.00050000       0.35860000       0.09700000
   154  H          0.00050000       0.64140000       0.90300000
   155  H         -0.00290000       0.48290000       0.10760000
   156  H          0.00290000       0.51710000       0.89240000
   157  H          0.10780000       0.48560000       0.19150000
   158  H          0.89220000       0.51440000       0.80850000
   159  C          0.36942000       0.72998000       0.01661190
   160  C          0.63058000       0.27002000       0.98338810
   161  H          0.42720000       0.74360000       0.96670000
   162  H          0.57280000       0.25640000       0.03330000
   163  H          0.42320000       0.77480000       0.09270000
   164  H          0.57680000       0.22520000       0.90730000
   165  H          0.30230000       0.75870000       0.00840000
   166  H          0.69770000       0.24130000      -0.00840000
