data_XEMCUP
_symmetry_space_group_name_H-M    'P1'
_symmetry_Int_Tables_number       1
loop_
_symmetry_equiv_pos_site_id
_symmetry_equiv_pos_as_xyz
1 x,y,z
_cell_length_a                   5.21932
_cell_length_b                   26.827512
_cell_length_c                   14.3387
_cell_angle_alpha                90.0
_cell_angle_beta                 95.2774
_cell_angle_gamma                90.0
loop_
_atom_site_label
_atom_site_type_symbol
_atom_site_fract_x
_atom_site_fract_y
_atom_site_fract_z
     1  Br         0.78051900       0.01371513       0.63158300
     2  Br         0.71948100       0.51371513       0.86841700
     3  Br         0.21948100       0.98628487       0.36841700
     4  Br         0.28051900       0.48628487       0.13158300
     5  N         -0.00336000       0.75681200       0.57293140
     6  N          0.50336000       0.25681200       0.92706860
     7  N          0.00336000       0.24318800       0.42706860
     8  N          0.49664000       0.74318800       0.07293140
     9  N          0.69174000       0.78935200       0.66709140
    10  N          0.80826000       0.28935200       0.83290860
    11  N          0.30826000       0.21064800       0.33290860
    12  N          0.19174000       0.71064800       0.16709140
    13  H          0.57910000       0.78130000       0.70460000
    14  H          0.92090000       0.28130000       0.79540000
    15  H          0.42090000       0.21870000       0.29540000
    16  H          0.07910000       0.71870000       0.20460000
    17  N          0.81624000       0.66549200       0.61926150
    18  N          0.68376000       0.16549200       0.88073850
    19  N          0.18376000       0.33450800       0.38073850
    20  N          0.31624000       0.83450800       0.11926150
    21  N          0.29344000       0.63441200       0.46571140
    22  N          0.20656000       0.13441200       0.03428860
    23  N          0.70656000       0.36558800       0.53428860
    24  N          0.79344000       0.86558800       0.96571140
    25  N          0.10484000       0.71557200       0.54162150
    26  N          0.39516000       0.21557200       0.95837850
    27  N          0.89516000       0.28442800       0.45837850
    28  N          0.60484000       0.78442800       0.04162150
    29  C          0.01535000       0.67245900       0.56731170
    30  C          0.48465000       0.17245900       0.93268830
    31  C         -0.01535000       0.32754100       0.43268830
    32  C          0.51535000       0.82754100       0.06731170
    33  C          0.80595000       0.75037900       0.62876170
    34  C          0.69405000       0.25037900       0.87123830
    35  C          0.19405000       0.24962100       0.37123830
    36  C          0.30595000       0.74962100       0.12876170
    37  N          0.71075000       0.70513200       0.65154160
    38  N          0.78925000       0.20513200       0.84845840
    39  N          0.28925000       0.29486800       0.34845840
    40  N          0.21075000       0.79486800       0.15154160
    41  N          0.12984000       0.62937200       0.53527140
    42  N          0.37016000       0.12937200       0.96472860
    43  N          0.87016000       0.37062800       0.46472860
    44  N          0.62984000       0.87062800       0.03527140
    45  C          0.75496000       0.94372900       0.64002190
    46  C          0.74504000       0.44372900       0.85997810
    47  C          0.24504000       0.05627100       0.35997810
    48  C          0.25496000       0.55627100       0.14002190
    49  C          0.90856000       0.86282890       0.60615190
    50  C          0.59144000       0.36282890       0.89384810
    51  C          0.09144000       0.13717110       0.39384810
    52  C          0.40856000       0.63717110       0.10615190
    53  H          0.02420000       0.84300000       0.57730000
    54  H          0.47580000       0.34300000       0.92270000
    55  H         -0.02420000       0.15700000       0.42270000
    56  H          0.52420000       0.65700000       0.07730000
    57  C          0.72445000       0.84063900       0.65640170
    58  C          0.77555000       0.34063900       0.84359830
    59  C          0.27555000       0.15936100       0.34359830
    60  C          0.22445000       0.65936100       0.15640170
    61  C          0.37086000       0.58860890       0.44932180
    62  C          0.12914000       0.08860890       0.05067820
    63  C          0.62914000       0.41139110       0.55067820
    64  C          0.87086000       0.91139110       0.94932180
    65  C          0.26266000       0.55416900       0.50816180
    66  C          0.23734000       0.05416900      -0.00816180
    67  C          0.73734000       0.44583100       0.49183820
    68  C          0.76266000       0.94583100       0.00816180
    69  H          0.29010000       0.51990000       0.50990000
    70  H          0.20990000       0.01990000       0.99010000
    71  H          0.70990000       0.48010000       0.49010000
    72  H          0.79010000       0.98010000       0.00990000
    73  C          0.10966000       0.58067900       0.56221180
    74  C          0.39034000       0.08067900       0.93778820
    75  C          0.89034000       0.41932100       0.43778820
    76  C          0.60966000       0.91932100       0.06221180
    77  C          0.56046000       0.57906890       0.37849190
    78  C          0.93954000       0.07906890       0.12150810
    79  C          0.43954000       0.42093110       0.62150810
    80  C          0.06046000       0.92093110       0.87849190
    81  H          0.60000000       0.60990000       0.34890000
    82  H          0.90000000       0.10990000       0.15110000
    83  H          0.40000000       0.39010000       0.65110000
    84  H          0.10000000       0.89010000       0.84890000
    85  H          0.48730000       0.55610000       0.33200000
    86  H          0.01270000       0.05610000       0.16800000
    87  H          0.51270000       0.44390000       0.66800000
    88  H         -0.01270000       0.94390000       0.83200000
    89  H          0.71510000       0.56510000       0.40930000
    90  H          0.78490000       0.06510000       0.09070000
    91  H          0.28490000       0.43490000       0.59070000
    92  H          0.21510000       0.93490000       0.90930000
    93  C          0.55876000       0.87172890       0.69942000
    94  C          0.94124000       0.37172890       0.80058000
    95  C          0.44124000       0.12827110       0.30058000
    96  C          0.05876000       0.62827110       0.19942000
    97  H          0.43480000       0.85790000       0.73420000
    98  H          0.06520000       0.35790000       0.76580000
    99  H          0.56520000       0.14210000       0.26580000
   100  H          0.93480000       0.64210000       0.23420000
   101  C          0.95156000       0.56174890       0.63698190
   102  C          0.54844000       0.06174890       0.86301810
   103  C          0.04844000       0.43825110       0.36301810
   104  C          0.45156000       0.93825110       0.13698190
   105  H          0.86320000       0.58910000       0.66290000
   106  H          0.63680000       0.08910000       0.83710000
   107  H          0.13680000       0.41090000       0.33710000
   108  H          0.36320000       0.91090000       0.16290000
   109  H          0.06200000       0.54600000       0.68550000
   110  H          0.43800000       0.04600000       0.81450000
   111  H          0.93800000       0.45400000       0.31450000
   112  H          0.56200000       0.95400000       0.18550000
   113  H          0.82800000       0.53800000       0.61030000
   114  H          0.67200000       0.03800000       0.88970000
   115  H          0.17200000       0.46200000       0.38970000
   116  H          0.32800000       0.96200000       0.11030000
   117  C          0.92206000       0.91346890       0.59852190
   118  C          0.57794000       0.41346890       0.90147810
   119  C          0.07794000       0.08653110       0.40147810
   120  C          0.42206000       0.58653110       0.09852190
   121  H          0.04690000       0.92760000       0.56450000
   122  H          0.45310000       0.42760000       0.93550000
   123  H          0.95310000       0.07240000       0.43550000
   124  H          0.54690000       0.57240000       0.06450000
   125  C          0.57436000       0.92212880       0.69162000
   126  C          0.92564000       0.42212880       0.80838000
   127  C          0.42564000       0.07787120       0.30838000
   128  C          0.07436000       0.57787120       0.19162000
   129  H          0.46170000       0.94230000       0.72130000
   130  H          0.03830000       0.44230000       0.77870000
   131  H          0.53830000       0.05770000       0.27870000
   132  H          0.96170000       0.55770000       0.22130000
   133  N          0.30845000       0.29805900       0.66510160
   134  N          0.19155000       0.79805900       0.83489840
   135  N          0.69155000       0.70194100       0.33489840
   136  N          0.80845000       0.20194100       0.16510160
   137  C          0.46605000       0.22759110       0.61199170
   138  C          0.03395000       0.72759110       0.88800830
   139  C          0.53395000       0.77240890       0.38800830
   140  C          0.96605000       0.27240890       0.11199170
   141  N          0.18285000       0.26141900       0.70092150
   142  N          0.31715000       0.76141900       0.79907850
   143  N          0.81715000       0.73858100       0.29907850
   144  N          0.68285000       0.23858100       0.20092150
   145  N          0.48025000       0.27775900       0.61119160
   146  N          0.01975000       0.77775900       0.88880840
   147  N          0.51975000       0.72224100       0.38880840
   148  N         -0.01975000       0.22224100       0.11119160
   149  C          0.32746000       0.13188110       0.64165190
   150  C          0.17254000       0.63188110       0.85834810
   151  C          0.67254000       0.86811890       0.35834810
   152  C          0.82746000       0.36811890       0.14165190
   153  H          0.28120000       0.09880000       0.64980000
   154  H          0.21880000       0.59880000       0.85020000
   155  H          0.71880000       0.90120000       0.35020000
   156  H          0.78120000       0.40120000       0.14980000
   157  C          0.20276000       0.16801110       0.68545180
   158  C          0.29724000       0.66801110       0.81454820
   159  C          0.79724000       0.83198890       0.31454820
   160  C          0.70276000       0.33198890       0.18545180
   161  H          0.07510000       0.16040000       0.72430000
   162  H          0.42490000       0.66040000       0.77570000
   163  H          0.92490000       0.83960000       0.27570000
   164  H          0.57510000       0.33960000       0.22430000
   165  C          0.59766000       0.19004110       0.56865180
   166  C          0.90234000       0.69004110       0.93134820
   167  C          0.40234000       0.80995890       0.43134820
   168  C          0.09766000       0.30995890       0.06865180
   169  H          0.72890000       0.19720000       0.53100000
   170  H          0.77110000       0.69720000       0.96900000
   171  H          0.27110000       0.80280000       0.46900000
   172  H          0.22890000       0.30280000       0.03100000
   173  C          0.27365000       0.21689100       0.66983170
   174  C          0.22635000       0.71689100       0.83016830
   175  C          0.72635000       0.78310900       0.33016830
   176  C          0.77365000       0.28310900       0.16983170
   177  C          0.52396000       0.14272120       0.58432000
   178  C         -0.02396000       0.64272120       0.91568000
   179  C          0.47604000       0.85727880       0.41568000
   180  C          0.02396000       0.35727880       0.08432000
   181  H          0.60570000       0.11660000       0.55640000
   182  H          0.89430000       0.61660000       0.94360000
   183  H          0.39430000       0.88340000       0.44360000
   184  H          0.10570000       0.38340000       0.05640000
   185  H          0.58860000       0.30311200       0.58631900
   186  H          0.91140000       0.80311200       0.91368100
   187  H          0.41140000       0.69688800       0.41368100
   188  H          0.08860000       0.19688800       0.08631900
