data_XEMREO
_symmetry_space_group_name_H-M    'P1'
_symmetry_Int_Tables_number       1
loop_
_symmetry_equiv_pos_site_id
_symmetry_equiv_pos_as_xyz
1 x,y,z
_cell_length_a                   6.64483
_cell_length_b                   8.82215
_cell_length_c                   16.52989
_cell_angle_alpha                100.5962
_cell_angle_beta                 92.1422
_cell_angle_gamma                107.2512
loop_
_atom_site_label
_atom_site_type_symbol
_atom_site_fract_x
_atom_site_fract_y
_atom_site_fract_z
     1  Cl         0.11289900       0.11435600       0.83851300
     2  Cl         0.88710100       0.88564400       0.16148700
     3  O          0.93487000       0.04202000       0.77691100
     4  O          0.06513000       0.95798000       0.22308900
     5  O          0.30483000       0.15382000       0.79838110
     6  O          0.69517000       0.84618000       0.20161890
     7  O          0.12003000       0.00072000       0.88993100
     8  O          0.87997000      -0.00072000       0.11006900
     9  O          0.09143000       0.26032000       0.88722110
    10  O          0.90857000       0.73968000       0.11277890
    11  O          0.43993000       0.68401180       0.86960900
    12  O          0.56007000       0.31598820       0.13039100
    13  N          0.16323000       0.48102000       0.19428100
    14  N          0.83677000       0.51898000       0.80571900
    15  C          0.22654000       0.63623000       0.23669130
    16  C          0.77346000       0.36377000       0.76330870
    17  C          0.25954000       0.67183000       0.32100130
    18  C          0.74046000       0.32817000       0.67899870
    19  C          0.22623000       0.54653000       0.36520130
    20  C          0.77377000       0.45347000       0.63479870
    21  C          0.15764000       0.38703000       0.31974140
    22  C          0.84236000       0.61297000       0.68025860
    23  C          0.12794000       0.35763000       0.23568140
    24  C          0.87206000       0.64237000       0.76431860
    25  C          0.26034000       0.57983000       0.45318140
    26  C          0.73966000       0.42017000       0.54681860
    27  C          0.28954000       0.60413000       0.52732140
    28  C          0.71046000       0.39587000       0.47267860
    29  C          0.32464000       0.62893000       0.61513120
    30  C          0.67536000       0.37107000       0.38486880
    31  C          0.39254000       0.78473000       0.66491140
    32  C          0.60746000       0.21527000       0.33508860
    33  C          0.43034000       0.80943000       0.74965140
    34  C          0.56966000       0.19057000       0.25034860
    35  C          0.40013000       0.67513000       0.78681120
    36  C          0.59987000       0.32487000       0.21318880
    37  C          0.32663000       0.51783000       0.73883120
    38  C          0.67337000       0.48217000       0.26116880
    39  C          0.28984000       0.49503000       0.65397130
    40  C          0.71016000       0.50497000       0.34602870
    41  C          0.53015000       0.84273000       0.92154160
    42  C          0.46985000       0.15727000       0.07845840
    43  C          0.12314000       0.44383000       0.10187130
    44  C          0.87686000       0.55617000       0.89812870
    45  C          0.28915000       0.55353000       0.06177160
    46  C          0.71085000       0.44647000       0.93822840
    47  H          0.25240000       0.71630000       0.20601200
    48  H          0.74760000       0.28370000       0.79398800
    49  H          0.30940000       0.78130000       0.34911300
    50  H          0.69060000       0.21870000       0.65088700
    51  H          0.13140000       0.29030000       0.34561400
    52  H          0.86860000       0.70970000       0.65438600
    53  H          0.08740000       0.25930000       0.20311300
    54  H          0.91260000       0.74070000       0.79688700
    55  H          0.41740000       0.88030000       0.64051300
    56  H          0.58260000       0.11970000       0.35948700
    57  H          0.48340000       0.91230000       0.77991400
    58  H          0.51660000       0.08770000       0.22008600
    59  H          0.30130000       0.42120000       0.76581100
    60  H          0.69870000       0.57880000       0.23418900
    61  H          0.23440000       0.38630000       0.62101300
    62  H          0.76560000       0.61370000       0.37898700
    63  H          0.55140000       0.81930000       0.97731400
    64  H          0.44860000       0.18070000       0.02268600
    65  H          0.65850000       0.90330000       0.90221500
    66  H          0.34150000       0.09670000       0.09778500
    67  H          0.42250000       0.89930000       0.92481500
    68  H          0.57750000       0.10070000       0.07518500
    69  H         -0.01640000       0.45630000       0.08661400
    70  H          0.01640000       0.54370000       0.91338600
    71  H          0.12540000       0.33030000       0.08421400
    72  H          0.87460000       0.66970000       0.91578600
    73  H          0.27040000       0.51430000       0.00081500
    74  H          0.72960000       0.48570000      -0.00081500
    75  H          0.27940000       0.66330000       0.07031200
    76  H          0.72060000       0.33670000       0.92968800
    77  H          0.42450000       0.55830000       0.08161700
    78  H          0.57550000       0.44170000       0.91838300
    79  C          0.89176000       0.97347000       0.56821150
    80  C          0.10824000       0.02653000       0.43178850
    81  C          0.10814000       0.04383000       0.57813160
    82  C          0.89186000       0.95617000       0.42186840
    83  C          0.78265000       0.93027000       0.49036160
    84  C          0.21735000       0.06973000       0.50963840
    85  H          0.81660000       0.95670000       0.61361500
    86  H          0.18340000       0.04330000       0.38638500
    87  H          0.17440000       0.07930000       0.63051600
    88  H          0.82560000       0.92070000       0.36948400
    89  H          0.62450000       0.87870000       0.48261600
    90  H          0.37550000       0.12130000       0.51738400
