data_XENJAF
_symmetry_space_group_name_H-M    'P1'
_symmetry_Int_Tables_number       1
loop_
_symmetry_equiv_pos_site_id
_symmetry_equiv_pos_as_xyz
1 x,y,z
_cell_length_a                   12.63274
_cell_length_b                   10.23883
_cell_length_c                   14.13264
_cell_angle_alpha                90.0
_cell_angle_beta                 109.34501
_cell_angle_gamma                90.0
loop_
_atom_site_label
_atom_site_type_symbol
_atom_site_fract_x
_atom_site_fract_y
_atom_site_fract_z
     1  S          0.33948300       0.27023400       0.36192300
     2  S          0.66051700       0.77023400       0.13807700
     3  S          0.66051700       0.72976600       0.63807700
     4  S          0.33948300       0.22976600       0.86192300
     5  S          0.41689300       0.38788400       0.57143300
     6  S          0.58310700       0.88788400       0.92856700
     7  S          0.58310700       0.61211600       0.42856700
     8  S          0.41689300       0.11211600       0.07143300
     9  O          0.24711120       0.34549170       0.36731120
    10  O          0.75288880       0.84549170       0.13268880
    11  O          0.75288880       0.65450830       0.63268880
    12  O          0.24711120       0.15450830       0.86731120
    13  O          0.38801140       0.29531140       0.28626110
    14  O          0.61198860       0.79531140       0.21373890
    15  O          0.61198860       0.70468860       0.71373890
    16  O          0.38801140       0.20468860       0.78626110
    17  O          0.44763100       0.49439120       0.75034900
    18  O          0.55236900      -0.00560880       0.74965100
    19  O          0.55236900       0.50560880       0.24965100
    20  O          0.44763100       0.00560880       0.25034900
    21  N          0.30897140       0.12113170       0.35892120
    22  N          0.69102860       0.62113170       0.14107880
    23  N          0.69102860       0.87886830       0.64107880
    24  N          0.30897140       0.37886830       0.85892120
    25  N          0.54508120       0.25436170       0.50123130
    26  N          0.45491880       0.75436170      -0.00123130
    27  N          0.45491880       0.74563830       0.49876870
    28  N          0.54508120       0.24563830       0.00123130
    29  N          0.60982120       0.28581170       0.59793130
    30  N          0.39017880       0.78581170       0.90206870
    31  N          0.39017880       0.71418830       0.40206870
    32  N          0.60982120       0.21418830       0.09793130
    33  N          0.60255110       0.39618130       0.73930110
    34  N          0.39744890       0.89618130       0.76069890
    35  N          0.39744890       0.60381870       0.26069890
    36  N          0.60255110       0.10381870       0.23930110
    37  C          0.44495130       0.30015150       0.47855130
    38  C          0.55504870       0.80015150       0.02144870
    39  C          0.55504870       0.69984850       0.52144870
    40  C          0.44495130       0.19984850       0.97855130
    41  C          0.55376120       0.35431150       0.64315130
    42  C          0.44623880       0.85431150       0.85684870
    43  C          0.44623880       0.64568850       0.35684870
    44  C          0.55376120       0.14568850       0.14315130
    45  C          0.54707130       0.46771140       0.78942120
    46  C          0.45292870       0.96771140       0.71057880
    47  C          0.45292870       0.53228860       0.21057880
    48  C          0.54707130       0.03228860       0.28942120
    49  C          0.61552160       0.51014180       0.89217130
    50  C          0.38447840       0.01014180       0.60782870
    51  C          0.38447840       0.48985820       0.10782870
    52  C          0.61552160      -0.01014180       0.39217130
    53  H          0.63584700       0.60027900       0.89074700
    54  H          0.36415300       0.10027900       0.60925300
    55  H          0.36415300       0.39972100       0.10925300
    56  H          0.63584700       0.89972100       0.39074700
    57  H          0.68221000       0.45781700       0.91557200
    58  H          0.31779000       0.95781700       0.58442800
    59  H          0.31779000       0.54218300       0.08442800
    60  H          0.68221000       0.04218300       0.41557200
    61  H          0.57266100       0.49969800       0.93649400
    62  H          0.42733900      -0.00030200       0.56350600
    63  H          0.42733900       0.50030200       0.06350600
    64  H          0.57266100       0.00030200       0.43649400
    65  H          0.66881900       0.37320000       0.76831500
    66  H          0.33118100       0.87320000       0.73168500
    67  H          0.33118100       0.62680000       0.23168500
    68  H          0.66881900       0.12680000       0.26831500
    69  H          0.34820000       0.07320000       0.33521700
    70  H          0.65180000       0.57320000       0.16478300
    71  H          0.65180000       0.92680000       0.66478300
    72  H          0.34820000       0.42680000       0.83521700
    73  H          0.25531500       0.09320000       0.37751700
    74  H          0.74468500       0.59320000       0.12248300
    75  H          0.74468500       0.90680000       0.62248300
    76  H          0.25531500       0.40680000       0.87751700
    77  O          0.12315100       0.46076890       0.90800110
    78  O          0.87684900       0.96076890       0.59199890
    79  O          0.87684900       0.53923110       0.09199890
    80  O          0.12315100       0.03923110       0.40800110
    81  O          0.82046100       0.33705110       0.84902110
    82  O          0.17953900       0.83705110       0.65097890
    83  O          0.17953900       0.66294890       0.15097890
    84  O          0.82046100       0.16294890       0.34902110
    85  N          0.08152100       0.57930880       0.89786100
    86  N          0.91847900       0.07930880       0.60213900
    87  N          0.91847900       0.42069120       0.10213900
    88  N          0.08152100       0.92069120       0.39786100
    89  N          0.85985110       0.21736120       0.85489100
    90  N          0.14014890       0.71736120       0.64510900
    91  N          0.14014890       0.78263880       0.14510900
    92  N          0.85985110       0.28263880       0.35489100
    93  C          0.14613130       0.68338840       0.89605130
    94  C          0.85386870       0.18338840       0.60394870
    95  C          0.85386870       0.31661160       0.10394870
    96  C          0.14613130       0.81661160       0.39605130
    97  H          0.22089100       0.67071800       0.90174000
    98  H          0.77910900       0.17071800       0.59826000
    99  H          0.77910900       0.32928200       0.09826000
   100  H          0.22089100       0.82928200       0.40174000
   101  C          0.10344120       0.80753850       0.88597120
   102  C          0.89655880       0.30753850       0.61402880
   103  C          0.89655880       0.19246150       0.11402880
   104  C          0.10344120       0.69246150       0.38597120
   105  H          0.14974400       0.87758100       0.88448900
   106  H          0.85025600       0.37758100       0.61551100
   107  H          0.85025600       0.12241900       0.11551100
   108  H          0.14974400       0.62241900       0.38448900
   109  C         -0.00813890       0.83126860       0.87786100
   110  C          0.00813890       0.33126860       0.62213900
   111  C          0.00813890       0.16873140       0.12213900
   112  C         -0.00813890       0.66873140       0.37786100
   113  C          0.92806130       0.72065850       0.87942140
   114  C          0.07193870       0.22065850       0.62057860
   115  C          0.07193870       0.27934150       0.12057860
   116  C          0.92806130       0.77934150       0.37942140
   117  H          0.85302900       0.73075700       0.87372100
   118  H          0.14697100       0.23075700       0.62627900
   119  H          0.14697100       0.26924300       0.12627900
   120  H          0.85302900       0.76924300       0.37372100
   121  C          0.97284130       0.59753850       0.88912140
   122  C          0.02715870       0.09753850       0.61087860
   123  C          0.02715870       0.40246150       0.11087860
   124  C          0.97284130       0.90246150       0.38912140
   125  H          0.92791800       0.52578600       0.88969400
   126  H          0.07208200       0.02578600       0.61030600
   127  H          0.07208200       0.47421400       0.11030600
   128  H          0.92791800       0.97421400       0.38969400
   129  C          0.96666130       0.19784150       0.85971130
   130  C          0.03333870       0.69784150       0.64028870
   131  C          0.03333870       0.80215850       0.14028870
   132  C          0.96666130       0.30215850       0.35971130
   133  H          0.01190700       0.26908600       0.85863500
   134  H         -0.01190700       0.76908600       0.64136500
   135  H         -0.01190700       0.73091400       0.14136500
   136  H          0.01190700       0.23091400       0.35863500
   137  C          0.00965120       0.07393150       0.86620120
   138  C         -0.00965120       0.57393150       0.63379880
   139  C         -0.00965120       0.92606850       0.13379880
   140  C          0.00965120       0.42606850       0.36620120
   141  H          0.08362400       0.06265000       0.86882600
   142  H          0.91637600       0.56265000       0.63117400
   143  H          0.91637600       0.93735000       0.13117400
   144  H          0.08362400       0.43735000       0.36882600
   145  C          0.94518110       0.96450860       0.86894100
   146  C          0.05481890       0.46450860       0.63105900
   147  C          0.05481890       0.03549140       0.13105900
   148  C          0.94518110       0.53549140       0.36894100
   149  C          0.83531120      -0.01057150       0.86429130
   150  C          0.16468880       0.48942850       0.63570870
   151  C          0.16468880       0.01057150       0.13570870
   152  C          0.83531120       0.51057150       0.36429130
   153  H          0.78862700       0.91981900       0.86586200
   154  H          0.21137300       0.41981900       0.63413800
   155  H          0.21137300       0.08018100       0.13413800
   156  H          0.78862700       0.58018100       0.36586200
   157  C          0.79429130       0.11440160       0.85744140
   158  C          0.20570870       0.61440160       0.64255860
   159  C          0.20570870       0.88559840       0.14255860
   160  C          0.79429130       0.38559840       0.35744140
   161  H          0.72051600       0.12825900       0.85452300
   162  H          0.27948400       0.62825900       0.64547700
   163  H          0.27948400       0.87174100       0.14547700
   164  H          0.72051600       0.37174100       0.35452300
