data_XEPNEN
_symmetry_space_group_name_H-M    'P1'
_symmetry_Int_Tables_number       1
loop_
_symmetry_equiv_pos_site_id
_symmetry_equiv_pos_as_xyz
1 x,y,z
_cell_length_a                   8.79826
_cell_length_b                   8.89277
_cell_length_c                   9.77565
_cell_angle_alpha                67.8276
_cell_angle_beta                 86.1815
_cell_angle_gamma                71.7947
loop_
_atom_site_label
_atom_site_type_symbol
_atom_site_fract_x
_atom_site_fract_y
_atom_site_fract_z
     1  N          0.91431160       0.81495830       0.84700140
     2  N          0.08568840       0.18504170       0.15299860
     3  C          0.86657170       0.95251820       0.71754160
     4  C          0.13342830       0.04748180       0.28245840
     5  H          0.86891700       0.73278100       0.86311700
     6  H          0.13108300       0.26721900       0.13688300
     7  H          0.01571600       0.77480000       0.87721700
     8  H          0.98428400       0.22520000       0.12278300
     9  N          0.73300150      -0.00593160       0.63673140
    10  N          0.26699850       0.00593160       0.36326860
    11  N          0.72892160       0.14307170       0.52312150
    12  N          0.27107840       0.85692830       0.47687850
    13  N          0.85220160       0.18802170       0.53620150
    14  N          0.14779840       0.81197830       0.46379850
    15  N          0.94275150       0.06932150       0.65918140
    16  N          0.05724850       0.93067850       0.34081860
    17  N          0.65193150       0.33698160       0.93990140
    18  N          0.34806850       0.66301840       0.06009860
    19  C          0.59867170       0.60843180       0.80256150
    20  C          0.40132830       0.39156820       0.19743850
    21  N          0.52562160       0.76597170       0.70517150
    22  N          0.47437840       0.23402830       0.29482850
    23  H          0.58061900       0.83720000       0.68151800
    24  H          0.41938100       0.16280000       0.31848200
    25  H          0.44771800       0.78320000       0.64171700
    26  H          0.55228200       0.21680000       0.35828300
    27  N          0.75757160       0.39283160       0.97173150
    28  N          0.24242840       0.60716840       0.02826850
    29  N          0.72996140       0.56220160       0.88779140
    30  N          0.27003860       0.43779840       0.11220860
    31  N          0.55009150       0.47171150       0.83253140
    32  N          0.44990850       0.52828850       0.16746860
    33  H          0.46441800       0.45520000       0.79881700
    34  H          0.53558200       0.54480000       0.20118300
    35  C          0.15470180       0.43870180       0.76956170
    36  C          0.84529820       0.56129820       0.23043830
    37  H          0.11960000       0.56100000       0.70380000
    38  H          0.88040000       0.43900000       0.29620000
    39  H          0.14040000       0.43100000       0.87310000
    40  H          0.85960000       0.56900000       0.12690000
    41  C          0.05234180       0.34653190       0.73203180
    42  C          0.94765820       0.65346810       0.26796820
    43  H          0.97890000       0.31670000       0.81190000
    44  H          0.02110000       0.68330000       0.18810000
    45  H          0.98700000       0.42210000       0.63870000
    46  H          0.01300000       0.57790000       0.36130000
    47  C          0.34090190       0.35742000       0.60066170
    48  C          0.65909810       0.64258000       0.39933830
    49  H          0.45580000       0.31930000       0.58150000
    50  H          0.54420000       0.68070000       0.41850000
    51  H          0.29160000       0.47390000       0.52670000
    52  H          0.70840000       0.52610000       0.47330000
    53  N          0.32504150       0.36054150       0.75062140
    54  N          0.67495850       0.63945850       0.24937860
    55  N          0.16017140       0.18886150       0.71576140
    56  N          0.83982860       0.81113850       0.28423860
    57  H          0.09221800       0.12871900       0.69941700
    58  H          0.90778200       0.87128100       0.30058300
    59  C          0.25782190       0.23513190       0.58537170
    60  C          0.74217810       0.76486810       0.41462830
    61  H          0.18820000       0.29150000       0.49310000
    62  H          0.81180000       0.70850000       0.50690000
    63  H          0.33900000       0.13110000       0.58120000
    64  H          0.66100000       0.86890000       0.41880000
    65  C          0.26778190       0.08344190       0.85135170
    66  C          0.73221810       0.91655810       0.14864830
    67  H          0.33130000       0.97210000       0.84660000
    68  H          0.66870000       0.02790000       0.15340000
    69  H          0.20390000       0.06180000       0.94000000
    70  H          0.79610000       0.93820000       0.06000000
    71  C          0.37995190       0.18276190       0.86038180
    72  C          0.62004810       0.81723810       0.13961820
    73  H          0.38150000       0.18390000       0.96110000
    74  H          0.61850000       0.81610000       0.03890000
    75  H          0.49040000       0.12490000       0.84110000
    76  H          0.50960000       0.87510000       0.15890000
