data_XEWTUO
_symmetry_space_group_name_H-M    'P1'
_symmetry_Int_Tables_number       1
loop_
_symmetry_equiv_pos_site_id
_symmetry_equiv_pos_as_xyz
1 x,y,z
_cell_length_a                   9.16156
_cell_length_b                   11.36969
_cell_length_c                   13.94301
_cell_angle_alpha                90.0
_cell_angle_beta                 98.0357
_cell_angle_gamma                90.0
loop_
_atom_site_label
_atom_site_type_symbol
_atom_site_fract_x
_atom_site_fract_y
_atom_site_fract_z
     1  O          0.30284170       0.23342120       0.21174120
     2  O          0.69715830       0.73342120       0.28825880
     3  O          0.69715830       0.76657880       0.78825880
     4  O          0.30284170       0.26657880       0.71174120
     5  N          0.39692000       0.41639150       0.22102140
     6  N          0.60308000       0.91639150       0.27897860
     7  N          0.60308000       0.58360850       0.77897860
     8  N          0.39692000       0.08360850       0.72102140
     9  N          0.15312000       0.38441190       0.16042160
    10  N          0.84688000       0.88441190       0.33957840
    11  N          0.84688000       0.61558810       0.83957840
    12  N          0.15312000       0.11558810       0.66042160
    13  C          0.28402000       0.34274180       0.19783160
    14  C          0.71598000       0.84274180       0.30216840
    15  C          0.71598000       0.65725820       0.80216840
    16  C          0.28402000       0.15725820       0.69783160
    17  C          0.54163000       0.36992000       0.26242000
    18  C          0.45837000       0.86992000       0.23758000
    19  C          0.45837000       0.63008000       0.73758000
    20  C          0.54163000       0.13008000       0.76242000
    21  C          0.63974000       0.34534000       0.18923000
    22  C          0.36026000       0.84534000       0.31077000
    23  C          0.36026000       0.65466000       0.81077000
    24  C          0.63974000       0.15466000       0.68923000
    25  C          0.38393000       0.54342000       0.20292000
    26  C          0.61607000       0.04342000       0.29708000
    27  C          0.61607000       0.45658000       0.79708000
    28  C          0.38393000       0.95658000       0.70292000
    29  C          0.39065000       0.57683000       0.09933000
    30  C          0.60935000       0.07683000       0.40067000
    31  C          0.60935000       0.42317000       0.90067000
    32  C          0.39065000       0.92317000       0.59933000
    33  H          0.13430000       0.45830000       0.15441900
    34  H          0.86570000       0.95830000       0.34558100
    35  H          0.86570000       0.54170000       0.84558100
    36  H          0.13430000       0.04170000       0.65441900
    37  H          0.08030000       0.33520000       0.14581800
    38  H          0.91970000       0.83520000       0.35418200
    39  H          0.91970000       0.66480000       0.85418200
    40  H          0.08030000       0.16480000       0.64581800
    41  H          0.58730000       0.42730000       0.30920000
    42  H          0.41270000       0.92730000       0.19080000
    43  H          0.41270000       0.57270000       0.69080000
    44  H          0.58730000       0.07270000       0.80920000
    45  H          0.52330000       0.29630000       0.29920000
    46  H          0.47670000       0.79630000       0.20080000
    47  H          0.47670000       0.70370000       0.70080000
    48  H          0.52330000       0.20370000       0.79920000
    49  H          0.58040000       0.29430000       0.13830000
    50  H          0.41960000       0.79430000       0.36170000
    51  H          0.41960000       0.70570000       0.86170000
    52  H          0.58040000       0.20570000       0.63830000
    53  H          0.73640000       0.30530000       0.22030000
    54  H          0.26360000       0.80530000       0.27970000
    55  H          0.26360000       0.69470000       0.77970000
    56  H          0.73640000       0.19470000       0.72030000
    57  H          0.66640000       0.42030000       0.15520000
    58  H          0.33360000       0.92030000       0.34480000
    59  H          0.33360000       0.57970000       0.84480000
    60  H          0.66640000       0.07970000       0.65520000
    61  H          0.28930000       0.57520000       0.22161600
    62  H          0.71070000       0.07520000       0.27838400
    63  H          0.71070000       0.42480000       0.77838400
    64  H          0.28930000       0.92480000       0.72161600
    65  H          0.46930000       0.58120000       0.24591800
    66  H          0.53070000       0.08120000       0.25408200
    67  H          0.53070000       0.41880000       0.75408200
    68  H          0.46930000       0.91880000       0.74591800
    69  H          0.32330000       0.53630000       0.05620000
    70  H          0.67670000       0.03630000       0.44380000
    71  H          0.67670000       0.46370000       0.94380000
    72  H          0.32330000       0.96370000       0.55620000
    73  H          0.48740000       0.56030000       0.07830000
    74  H          0.51260000       0.06030000       0.42170000
    75  H          0.51260000       0.43970000       0.92170000
    76  H          0.48740000       0.93970000       0.57830000
    77  H          0.37230000       0.65930000       0.08920000
    78  H          0.62770000       0.15930000       0.41080000
    79  H          0.62770000       0.34070000       0.91080000
    80  H          0.37230000       0.84070000       0.58920000
    81  O          0.12881170       0.07134140       0.16873120
    82  O          0.87118830       0.57134140       0.33126880
    83  O          0.87118830       0.92865860       0.83126880
    84  O          0.12881170       0.42865860       0.66873120
    85  O          0.94540820       0.19094130       0.11124130
    86  O          0.05459180       0.69094130       0.38875870
    87  O          0.05459180       0.80905870       0.88875870
    88  O          0.94540820       0.30905870       0.61124130
    89  O          0.70208000       0.10529170       0.03032170
    90  O          0.29792000       0.60529170       0.46967830
    91  O          0.29792000       0.89470830       0.96967830
    92  O          0.70208000       0.39470830       0.53032170
    93  O          0.85698000       0.57573840       0.08431150
    94  O          0.14302000       0.07573840       0.41568850
    95  O          0.14302000       0.42426160       0.91568850
    96  O          0.85698000       0.92426160       0.58431150
    97  O          0.06332000       0.65100830       0.14232000
    98  O          0.93668000       0.15100830       0.35768000
    99  O          0.93668000       0.34899170       0.85768000
   100  O          0.06332000       0.84899170       0.64232000
   101  N          0.93557000       0.66040830       0.10558160
   102  N          0.06443000       0.16040830       0.39441840
   103  N          0.06443000       0.33959170       0.89441840
   104  N          0.93557000       0.83959170       0.60558160
   105  C          0.90558000       0.98621820       0.09841150
   106  C          0.09442000       0.48621820       0.40158850
   107  C          0.09442000       0.01378180       0.90158850
   108  C          0.90558000       0.51378180       0.59841150
   109  C          0.76188000      -0.00132000       0.05114180
   110  C          0.23812000       0.49868000       0.44885820
   111  C          0.23812000       0.00132000       0.94885820
   112  C          0.76188000       0.50132000       0.55114180
   113  C          0.67677000       0.89988000       0.02342000
   114  C          0.32323000       0.39988000       0.47658000
   115  C          0.32323000       0.10012000       0.97658000
   116  C          0.67677000       0.60012000       0.52342000
   117  C          0.73287000       0.79018000       0.04184190
   118  C          0.26713000       0.29018000       0.45815810
   119  C          0.26713000       0.20982000       0.95815810
   120  C          0.73287000       0.70982000       0.54184190
   121  C          0.87488000       0.77796810       0.08780160
   122  C          0.12512000       0.27796810       0.41219840
   123  C          0.12512000       0.22203190       0.91219840
   124  C          0.87488000       0.72203190       0.58780160
   125  C          0.96187000       0.87376810       0.11621160
   126  C          0.03813000       0.37376810       0.38378840
   127  C          0.03813000       0.12623190       0.88378840
   128  C          0.96187000       0.62623190       0.61621160
   129  C         -0.00272000       0.09093190       0.12768170
   130  C          0.00272000       0.59093190       0.37231830
   131  C          0.00272000       0.90906810       0.87231830
   132  C         -0.00272000       0.40906810       0.62768170
   133  H          0.19740000       0.15030000       0.18620000
   134  H          0.80260000       0.65030000       0.31380000
   135  H          0.80260000       0.84970000       0.81380000
   136  H          0.19740000       0.34970000       0.68620000
   137  H          0.77460000       0.15430000       0.05520000
   138  H          0.22540000       0.65430000       0.44480000
   139  H          0.22540000       0.84570000       0.94480000
   140  H          0.77460000       0.34570000       0.55520000
   141  H          0.57870000       0.90880000      -0.00620000
   142  H          0.42130000       0.40880000       0.50620000
   143  H          0.42130000       0.09120000       0.00620000
   144  H          0.57870000       0.59120000       0.49380000
   145  H          0.67670000       0.72180000       0.02511700
   146  H          0.32330000       0.22180000       0.47488300
   147  H          0.32330000       0.27820000       0.97488300
   148  H          0.67670000       0.77820000       0.52511700
   149  H          0.05930000       0.86248100       0.14811500
   150  H          0.94070000       0.36248100       0.35188500
   151  H          0.94070000       0.13751900       0.85188500
   152  H          0.05930000       0.63751900       0.64811500
