data_XEZHOD
_symmetry_space_group_name_H-M    'P1'
_symmetry_Int_Tables_number       1
loop_
_symmetry_equiv_pos_site_id
_symmetry_equiv_pos_as_xyz
1 x,y,z
_cell_length_a                   6.9976
_cell_length_b                   11.4071
_cell_length_c                   12.77411
_cell_angle_alpha                96.8781
_cell_angle_beta                 93.7271
_cell_angle_gamma                106.3541
loop_
_atom_site_label
_atom_site_type_symbol
_atom_site_fract_x
_atom_site_fract_y
_atom_site_fract_z
     1  Cl         0.12763000       0.47902000       0.11501180
     2  Cl         0.87237000       0.52098000       0.88498820
     3  Cl         0.29784000       0.49202000       0.35448190
     4  Cl         0.70216000       0.50798000       0.64551810
     5  N          0.42941300       0.04108000       0.11727000
     6  N          0.57058700       0.95892000       0.88273000
     7  N          0.66761300       0.05918000       0.41867000
     8  N          0.33238700       0.94082000       0.58133000
     9  O          0.19851000       0.72346000       0.05385000
    10  O          0.80149000       0.27654000       0.94615000
    11  O          0.51451000       0.74367000       0.44935000
    12  O          0.48549000       0.25633000       0.55065000
    13  C          0.25101400       0.61418000       0.19248000
    14  C          0.74898600       0.38582000       0.80752000
    15  C          0.32521400       0.62008000       0.29437000
    16  C          0.67478600       0.37992000       0.70563000
    17  C          0.44301400       0.73909000       0.35957000
    18  C          0.55698600       0.26091000       0.64043000
    19  C          0.46681400       0.85059000       0.30737000
    20  C          0.53318600       0.14941000       0.69263000
    21  C          0.38811400       0.84508000       0.20627000
    22  C          0.61188600       0.15492000       0.79373000
    23  C          0.27051400       0.72649000       0.14357000
    24  C          0.72948600       0.27351000       0.85643000
    25  C          0.41221400       0.95449000       0.15718000
    26  C          0.58778600       0.04551000       0.84282000
    27  C          0.57651400       0.96599000       0.36848000
    28  C          0.42348600       0.03401000       0.63152000
    29  C          0.64741400       0.47229000       0.15168000
    30  C          0.35258600       0.52771000       0.84832000
    31  H          0.60630000       0.48730000       0.08340000
    32  H          0.39370000       0.51270000       0.91660000
    33  C          0.60411400       0.35209000       0.17399000
    34  C          0.39588600       0.64791000       0.82601000
    35  H          0.53860000       0.28520000       0.11990000
    36  H          0.46140000       0.71480000       0.88010000
    37  C          0.65551600       0.32831000       0.27419000
    38  C          0.34448400       0.67169000       0.72581000
    39  H          0.62380000       0.24560000       0.28880000
    40  H          0.37620000       0.75440000       0.71120000
    41  C          0.75121400       0.42319000       0.35149000
    42  C          0.24878600       0.57681000       0.64851000
    43  H          0.78240000       0.40600000       0.42040000
    44  H          0.21760000       0.59400000       0.57960000
    45  C          0.80481400       0.54519000       0.33178000
    46  C          0.19518600       0.45481000       0.66822000
    47  C          0.75101400       0.57128000       0.22887000
    48  C          0.24898600       0.42872000       0.77113000
    49  C          0.91281500       0.64761000       0.40868000
    50  C          0.08718500       0.35239000       0.59132000
    51  H          0.94820000       0.63220000       0.47760000
    52  H          0.05180000       0.36780000       0.52240000
    53  C          0.96801400       0.76639000       0.38838000
    54  C          0.03198600       0.23361000       0.61162000
    55  H          0.04290000       0.83040000       0.44230000
    56  H          0.95710000       0.16960000       0.55770000
    57  C          0.91471300       0.79589000       0.28677000
    58  C          0.08528700       0.20411000       0.71323000
    59  C          0.80091500       0.69879000       0.20827000
    60  C          0.19908500       0.30121000       0.79173000
    61  C          0.73991400       0.72789000       0.10817000
    62  C          0.26008600       0.27211000       0.89183000
    63  H          0.66690000       0.66320000       0.05390000
    64  H          0.33310000       0.33680000       0.94610000
    65  C          0.78501500       0.84649000       0.08968000
    66  C          0.21498500       0.15351000       0.91032000
    67  H          0.73880000       0.86330000       0.02300000
    68  H          0.26120000       0.13670000       0.97700000
    69  C          0.89961500       0.94729000       0.16658000
    70  C          0.10038500       0.05271000       0.83342000
    71  C          0.96991400       0.92219000       0.26517000
    72  C          0.03008600       0.07781000       0.73483000
    73  C          0.08991400       0.02139000       0.33758000
    74  C          0.91008600       0.97861000       0.66242000
    75  H          0.14160000       0.00640000       0.40360000
    76  H          0.85840000      -0.00640000       0.59640000
    77  C          0.13391500       0.13889000       0.31488000
    78  C          0.86608500       0.86111000       0.68512000
    79  H          0.21580000       0.20470000       0.36530000
    80  H          0.78420000       0.79530000       0.63470000
    81  C          0.06111500       0.16421000       0.21898000
    82  C          0.93888500       0.83579000       0.78102000
    83  H          0.09200000       0.24710000       0.20510000
    84  H          0.90800000       0.75290000       0.79490000
    85  C          0.94451500       0.07029000       0.14389000
    86  C          0.05548500       0.92971000       0.85611000
    87  H          0.89500000       0.08740000       0.07810000
    88  H          0.10500000       0.91260000       0.92190000
