data_XEZQUP
_symmetry_space_group_name_H-M    'P1'
_symmetry_Int_Tables_number       1
loop_
_symmetry_equiv_pos_site_id
_symmetry_equiv_pos_as_xyz
1 x,y,z
_cell_length_a                   9.0382
_cell_length_b                   9.162815
_cell_length_c                   25.72814
_cell_angle_alpha                87.262
_cell_angle_beta                 80.25414
_cell_angle_gamma                67.2296
loop_
_atom_site_label
_atom_site_type_symbol
_atom_site_fract_x
_atom_site_fract_y
_atom_site_fract_z
     1  Br         0.17948000       0.39058000       0.84502100
     2  Br         0.82052000       0.60942000       0.15497900
     3  Br         0.64628000       0.88788000       0.92220900
     4  Br         0.35372000       0.11212000       0.07779100
     5  S          0.08181000       0.55259000       0.70466000
     6  S          0.91819000       0.44741000       0.29534000
     7  S          0.97038700       0.71518600       0.60427000
     8  S          0.02961300       0.28481400       0.39573000
     9  S          0.64749000       0.00551000       0.67627000
    10  S          0.35251000      -0.00551000       0.32373000
    11  S          0.76741000       0.83431000       0.77628000
    12  S          0.23259000       0.16569000       0.22372000
    13  C          0.18040000       0.47850000       0.63878100
    14  C          0.81960000       0.52150000       0.36121900
    15  C          0.14960000       0.52930000       0.58948200
    16  C          0.85040000       0.47070000       0.41051800
    17  C          0.92980000       0.71880000       0.67283000
    18  C          0.07020000       0.28120000       0.32717000
    19  C          0.80870000       0.83070000       0.70593000
    20  C          0.19130000       0.16930000       0.29407000
    21  C          0.52770000       0.09130000       0.74158600
    22  C          0.47230000       0.90870000       0.25841400
    23  C          0.59070000       0.00330000       0.78358700
    24  C          0.40930000      -0.00330000       0.21641300
    25  H          0.27300000       0.38350000       0.63900000
    26  H          0.72700000       0.61650000       0.36100000
    27  H          0.20530000       0.47940000       0.55650000
    28  H          0.79470000       0.52060000       0.44350000
    29  H          0.43750000       0.18990000       0.74480000
    30  H          0.56250000       0.81010000       0.25520000
    31  H          0.53120000       0.03460000       0.81800000
    32  H          0.46880000       0.96540000       0.18200000
    33  O          0.16680000       0.34280000       0.98062000
    34  O          0.83320000       0.65720000       0.01938000
    35  H          0.25090000       0.31350000       0.00160000
    36  H          0.74910000       0.68650000      -0.00160000
    37  H          0.21280000       0.30880000       0.94520000
    38  H          0.78720000       0.69120000       0.05480000
    39  N          0.40198500       0.53188500       0.11816000
    40  N          0.59801500       0.46811500       0.88184000
    41  N          0.08288400       0.95438500       0.88194000
    42  N          0.91711600       0.04561500       0.11806000
    43  C          0.22460000       0.06730000       0.52338600
    44  C          0.77540000       0.93270000       0.47661400
    45  C          0.26570000       0.98270000       0.57368900
    46  C          0.73430000       0.01730000       0.42631100
    47  C          0.14080000       0.05720000       0.62781000
    48  C          0.85920000       0.94280000       0.37219000
    49  C          0.19280000       0.96780000       0.67802000
    50  C          0.80720000       0.03220000       0.32198000
    51  C          0.08380000       0.04720000       0.73102000
    52  C          0.91620000       0.95280000       0.26898000
    53  C          0.14188100       0.95880000       0.78032000
    54  C          0.85811900       0.04120000       0.21968000
    55  C          0.02180000       0.03820000       0.83143000
    56  C          0.97820000       0.96180000       0.16857000
    57  C          0.06708500       0.81780000       0.89953000
    58  C          0.93291500       0.18220000       0.10047000
    59  C          0.16380000       0.00920000       0.91273000
    60  C          0.83620000      -0.00920000       0.08727000
    61  C          0.22918200       0.92868100       0.95713000
    62  C          0.77081800       0.07131900       0.04287000
    63  C          0.12638100       0.72788200       0.94413000
    64  C          0.87361900       0.27211800       0.05587000
    65  C          0.20828200       0.78280000       0.97403000
    66  C          0.79171800       0.21720000       0.02597000
    67  C          0.27268300       0.69548300       0.02447000
    68  C          0.72731700       0.30451700       0.97553000
    69  C          0.19980000       0.60580000       0.05347000
    70  C          0.80020000       0.39420000       0.94653000
    71  C          0.40168100       0.71488100       0.04158000
    72  C          0.59831900       0.28511900       0.95842000
    73  C          0.46580000       0.63280000       0.08728000
    74  C          0.53420000       0.36720000       0.91272000
    75  C          0.26180000       0.52780000       0.09878000
    76  C          0.73820000       0.47220000       0.90122000
    77  C          0.45580000       0.44780000       0.16787000
    78  C          0.54420000       0.55220000       0.83213000
    79  C          0.35658100       0.53980000       0.22098000
    80  C          0.64341900       0.46020000       0.77902000
    81  C          0.42380000       0.45680000       0.26918000
    82  C          0.57620000       0.54320000       0.73082000
    83  C          0.32880000       0.53580000       0.32318000
    84  C          0.67120000       0.46420000       0.67682000
    85  C          0.38670000       0.45070000       0.37199000
    86  C          0.61330000       0.54930000       0.62801000
    87  C          0.29860000       0.52460000       0.42641200
    88  C          0.70140000       0.47540000       0.57358800
    89  C          0.31560000       0.65460000       0.44521300
    90  C          0.68440000       0.34540000       0.55478700
    91  H          0.26250000      -0.00340000       0.49380000
    92  H          0.73750000       0.00340000       0.50620000
    93  H          0.26890000       0.14680000       0.51700000
    94  H          0.73110000       0.85320000       0.48300000
    95  H          0.10990000       0.11530000       0.52870000
    96  H          0.89010000       0.88470000       0.47130000
    97  H          0.36980000       0.98230000       0.57680000
    98  H          0.63020000       0.01770000       0.42320000
    99  H          0.27420000       0.87740000       0.57010000
   100  H          0.72580000       0.12260000       0.42990000
   101  H          0.03630000       0.06070000       0.62440000
   102  H          0.96370000       0.93930000       0.37560000
   103  H          0.13470000       0.16210000       0.63200000
   104  H          0.86530000       0.83790000       0.36800000
   105  H          0.30070000       0.95760000       0.67930000
   106  H          0.69930000       0.04240000       0.32070000
   107  H          0.19120000       0.86560000       0.67440000
   108  H          0.80880000       0.13440000       0.32560000
   109  H          0.07870000       0.15200000       0.73380000
   110  H          0.92130000       0.84800000       0.26620000
   111  H          0.97790000       0.04950000       0.73110000
   112  H          0.02210000       0.95050000       0.26890000
   113  H          0.24580000       0.95960000       0.78200000
   114  H          0.75420000       0.04040000       0.21800000
   115  H          0.15050000       0.85270000       0.77800000
   116  H          0.84950000       0.14730000       0.22200000
   117  H          0.01210000       0.14490000       0.83300000
   118  H          0.98790000       0.85510000       0.16700000
   119  H          0.91890000       0.03550000       0.82970000
   120  H          0.08110000       0.96450000       0.17030000
   121  H          0.17760000       0.10470000       0.90320000
   122  H          0.82240000       0.89530000       0.09680000
   123  H          0.28300000       0.97110000       0.97720000
   124  H          0.71700000       0.02890000       0.02280000
   125  H          0.11250000       0.63190000       0.95340000
   126  H          0.88750000       0.36810000       0.04660000
   127  H          0.01310000       0.77570000       0.87960000
   128  H          0.98690000       0.22430000       0.12040000
   129  H          0.44720000       0.78510000       0.02390000
   130  H          0.55280000       0.21490000       0.97610000
   131  H          0.10690000       0.59610000       0.04400000
   132  H          0.89310000       0.40390000       0.95600000
   133  H          0.21350000       0.45980000       0.11650000
   134  H          0.78650000       0.54020000       0.88350000
   135  H          0.56130000       0.63910000       0.09590000
   136  H          0.43870000       0.36090000       0.90410000
   137  H          0.56730000       0.42930000       0.16650000
   138  H          0.43270000       0.57070000       0.83350000
   139  H          0.44330000       0.34940000       0.16870000
   140  H          0.55670000       0.65060000       0.83130000
   141  H          0.24620000       0.55210000       0.22420000
   142  H          0.75380000       0.44790000       0.77580000
   143  H          0.36240000       0.64170000       0.21960000
   144  H          0.63760000       0.35830000       0.78040000
   145  H          0.42260000       0.35400000       0.26910000
   146  H          0.57740000       0.64600000       0.73090000
   147  H          0.53370000       0.44860000       0.26600000
   148  H          0.46630000       0.55140000       0.73400000
   149  H          0.21810000       0.55370000       0.32470000
   150  H          0.78190000       0.44630000       0.67530000
   151  H          0.34020000       0.63490000       0.32450000
   152  H          0.65980000       0.36510000       0.67550000
   153  H          0.37380000       0.35360000       0.37040000
   154  H          0.62620000       0.64640000       0.62960000
   155  H          0.49970000       0.43090000       0.36910000
   156  H          0.50030000       0.56910000       0.63090000
   157  H          0.18560000       0.55150000       0.42750000
   158  H          0.81440000       0.44850000       0.57250000
   159  H          0.33740000       0.44680000       0.45180000
   160  H          0.66260000       0.55320000       0.54820000
   161  H          0.23150000       0.74630000       0.43490000
   162  H          0.76850000       0.25370000       0.56510000
   163  H          0.41830000       0.65520000       0.42930000
   164  H          0.58170000       0.34480000       0.57070000
   165  H          0.30770000       0.65610000       0.48250000
   166  H          0.69230000       0.34390000       0.51750000
