data_XIBNII
_symmetry_space_group_name_H-M    'P1'
_symmetry_Int_Tables_number       1
loop_
_symmetry_equiv_pos_site_id
_symmetry_equiv_pos_as_xyz
1 x,y,z
_cell_length_a                   7.15733
_cell_length_b                   16.81417
_cell_length_c                   12.59165
_cell_angle_alpha                90.0
_cell_angle_beta                 99.90501
_cell_angle_gamma                90.0
loop_
_atom_site_label
_atom_site_type_symbol
_atom_site_fract_x
_atom_site_fract_y
_atom_site_fract_z
     1  I          0.29382200       0.75308200       0.55676200
     2  I          0.70617800       0.25308200       0.94323800
     3  I          0.70617800       0.24691800       0.44323800
     4  I          0.29382200       0.74691800       0.05676200
     5  O          0.75682000       0.69417900       0.95065120
     6  O          0.24318000       0.19417900       0.54934880
     7  O          0.24318000       0.30582100       0.04934880
     8  O          0.75682000       0.80582100       0.45065120
     9  O          0.79422000       0.80202100       0.04618110
    10  O          0.20578000       0.30202100       0.45381890
    11  O          0.20578000       0.19797900       0.95381890
    12  O          0.79422000       0.69797900       0.54618110
    13  O          0.53372000       0.04992900       0.88917130
    14  O          0.46628000       0.54992900       0.61082870
    15  O          0.46628000       0.95007100       0.11082870
    16  O          0.53372000       0.45007100       0.38917130
    17  N          0.73392000       0.76548100       0.96319130
    18  N          0.26608000       0.26548100       0.53680870
    19  N          0.26608000       0.23451900       0.03680870
    20  N          0.73392000       0.73451900       0.46319130
    21  O          0.40082000       0.05296900       0.72183120
    22  O          0.59918000       0.55296900       0.77816880
    23  O          0.59918000       0.94703100       0.27816880
    24  O          0.40082000       0.44703100       0.22183120
    25  N          0.47742000       0.01783100       0.80307140
    26  N          0.52258000       0.51783100       0.69692860
    27  N          0.52258000       0.98216900       0.19692860
    28  N          0.47742000       0.48216900       0.30307140
    29  C          0.43623000       0.81058110       0.69593140
    30  C          0.56377000       0.31058110       0.80406860
    31  C          0.56377000       0.18941890       0.30406860
    32  C          0.43623000       0.68941890       0.19593140
    33  C          0.54183000       0.76825110       0.78051150
    34  C          0.45817000       0.26825110       0.71948850
    35  C          0.45817000       0.23174890       0.21948850
    36  C          0.54183000       0.73174890       0.28051150
    37  H          0.55809000       0.71236500       0.77574300
    38  H          0.44191000       0.21236500       0.72425700
    39  H          0.44191000       0.28763500       0.22425700
    40  H          0.55809000       0.78763500       0.27574300
    41  C          0.62303000       0.81014120       0.87241150
    42  C          0.37697000       0.31014120       0.62758850
    43  C          0.37697000       0.18985880       0.12758850
    44  C          0.62303000       0.68985880       0.37241150
    45  C          0.60403000       0.89113110       0.88402150
    46  C          0.39597000       0.39113110       0.61597850
    47  C          0.39597000       0.10886890       0.11597850
    48  C          0.60403000       0.60886890       0.38402150
    49  H          0.65856200       0.91817300       0.94813500
    50  H          0.34143800       0.41817300       0.55186500
    51  H          0.34143800       0.08182700       0.05186500
    52  H          0.65856200       0.58182700       0.44813500
    53  C          0.50083000       0.93074110       0.79684150
    54  C          0.49917000       0.43074110       0.70315850
    55  C          0.49917000       0.06925890       0.20315850
    56  C          0.50083000       0.56925890       0.29684150
    57  C          0.41583000       0.89250110       0.70334150
    58  C          0.58417000       0.39250110       0.79665850
    59  C          0.58417000       0.10749890       0.29665850
    60  C          0.41583000       0.60749890       0.20334150
    61  H          0.34506100       0.92174500       0.64545000
    62  H          0.65493900       0.42174500       0.85455000
    63  H          0.65493900       0.07825500       0.35455000
    64  H          0.34506100       0.57825500       0.14545000
    65  N          0.09862000       0.66222100       0.37600130
    66  N          0.90138000       0.16222100       0.12399870
    67  N          0.90138000       0.33777900       0.62399870
    68  N          0.09862000       0.83777900       0.87600130
    69  C          0.01113000       0.67322110       0.27367150
    70  C         -0.01113000       0.17322110       0.22632850
    71  C         -0.01113000       0.32677890       0.72632850
    72  C          0.01113000       0.82677890       0.77367150
    73  H          0.00182500       0.72617700       0.24698700
    74  H         -0.00182500       0.22617700       0.25301300
    75  H         -0.00182500       0.27382300       0.75301300
    76  H          0.00182500       0.77382300       0.74698700
    77  N          0.85927000       0.47333100       0.17895140
    78  N          0.14073000       0.97333100       0.32104860
    79  N          0.14073000       0.52666900       0.82104860
    80  N          0.85927000       0.02666900       0.67895140
    81  C          0.93377000       0.61384110       0.20452150
    82  C          0.06623000       0.11384110       0.29547850
    83  C          0.06623000       0.38615890       0.79547850
    84  C          0.93377000       0.88615890       0.70452150
    85  H          0.87537300       0.62622800       0.13287600
    86  H          0.12462700       0.12622800       0.36712400
    87  H          0.12462700       0.37377200       0.86712400
    88  H          0.87537300       0.87377200       0.63287600
    89  C          0.94227000       0.53451110       0.24105150
    90  C          0.05773000       0.03451110       0.25894850
    91  C          0.05773000       0.46548890       0.75894850
    92  C          0.94227000       0.96548890       0.74105150
    93  C          0.03663000       0.52171120       0.34761150
    94  C          0.96337000       0.02171120       0.15238850
    95  C          0.96337000       0.47828880       0.65238850
    96  C          0.03663000       0.97828880       0.84761150
    97  H          0.04993100       0.46943000       0.37654100
    98  H          0.95006900       0.96943000       0.12345900
    99  H          0.95006900       0.53057000       0.62345900
   100  H          0.04993100       0.03057000       0.87654100
   101  C          0.10923000       0.58608120       0.40934160
   102  C          0.89077000       0.08608120       0.09065840
   103  C          0.89077000       0.41391880       0.59065840
   104  C          0.10923000       0.91391880       0.90934160
   105  H          0.17149600       0.57580500       0.48090200
   106  H          0.82850400       0.07580500       0.01909800
   107  H          0.82850400       0.42419500       0.51909800
   108  H          0.17149600       0.92419500       0.98090200
   109  C          0.75807000       0.48717140       0.07041170
   110  C          0.24193000       0.98717140       0.42958830
   111  C          0.24193000       0.51282860       0.92958830
   112  C          0.75807000       0.01282860       0.57041170
   113  H          0.68550500       0.53670300       0.06873100
   114  H          0.31449500       0.03670300       0.43126900
   115  H          0.31449500       0.46329700       0.93126900
   116  H          0.68550500       0.96329700       0.56873100
   117  H          0.67132600       0.44277600       0.04841000
   118  H          0.32867400       0.94277600       0.45159000
   119  H          0.32867400       0.55722400       0.95159000
   120  H          0.67132600       0.05722400       0.54841000
   121  H          0.84916100       0.49136800       0.02077500
   122  H          0.15083900       0.99136800       0.47922500
   123  H          0.15083900       0.50863200       0.97922500
   124  H          0.84916100       0.00863200       0.52077500
   125  C          0.89546000       0.39126120       0.21332190
   126  C          0.10454000       0.89126120       0.28667810
   127  C          0.10454000       0.60873880       0.78667810
   128  C          0.89546000       0.10873880       0.71332190
   129  H          0.03223300       0.38089400       0.22439800
   130  H          0.96776700       0.88089400       0.27560200
   131  H          0.96776700       0.61910600       0.77560200
   132  H          0.03223300       0.11910600       0.72439800
   133  H          0.83028600       0.35532900       0.15773800
   134  H          0.16971400       0.85532900       0.34226200
   135  H          0.16971400       0.64467100       0.84226200
   136  H          0.83028600       0.14467100       0.65773800
   137  H          0.84842100       0.38232100       0.28096500
   138  H          0.15157900       0.88232100       0.21903500
   139  H          0.15157900       0.61767900       0.71903500
   140  H          0.84842100       0.11767900       0.78096500
