data_XIDJIG
_symmetry_space_group_name_H-M    'P1'
_symmetry_Int_Tables_number       1
loop_
_symmetry_equiv_pos_site_id
_symmetry_equiv_pos_as_xyz
1 x,y,z
_cell_length_a                   12.34381
_cell_length_b                   12.777911
_cell_length_c                   16.416213
_cell_angle_alpha                84.8835
_cell_angle_beta                 70.3945
_cell_angle_gamma                80.7315
loop_
_atom_site_label
_atom_site_type_symbol
_atom_site_fract_x
_atom_site_fract_y
_atom_site_fract_z
     1  Br         0.79052500       0.56529500       0.31210400
     2  Br         0.20947500       0.43470500       0.68789600
     3  S          0.35196130       0.43092120       0.39298100
     4  S          0.64803870       0.56907880       0.60701900
     5  S          0.80749140       0.98062120       0.39927100
     6  S          0.19250860       0.01937880       0.60072900
     7  S          0.63601150       0.88351130       0.07734100
     8  S          0.36398850       0.11648870       0.92265900
     9  N          0.49453000       0.79353000       0.42013000
    10  N          0.50547000       0.20647000       0.57987000
    11  N          0.48273000       0.57333000       0.39733000
    12  N          0.51727000       0.42667000       0.60267000
    13  H          0.54980000       0.59440000       0.38130000
    14  H          0.45020000       0.40560000       0.61870000
    15  N          0.76004000       0.72014000       0.13283000
    16  N          0.23996000       0.27986000       0.86717000
    17  H          0.76840000       0.67890000       0.17520000
    18  H          0.23160000       0.32110000       0.82480000
    19  N          0.72894000       0.79514000       0.43033000
    20  N          0.27106000       0.20486000       0.56967000
    21  H          0.74140000       0.72790000       0.42290000
    22  H          0.25860000       0.27210000       0.57710000
    23  N          0.88674000       0.80184000       0.31203000
    24  N          0.11326000       0.19816000       0.68797000
    25  H          0.88700000       0.73450000       0.31150000
    26  H          0.11300000       0.26550000       0.68850000
    27  N          0.57404000       0.44254000       0.30403000
    28  N          0.42596000       0.55746000       0.69597000
    29  H          0.63200000       0.47750000       0.29070000
    30  H          0.36800000       0.52250000       0.70930000
    31  N          0.61204000       0.80654000       0.23773000
    32  N          0.38796000       0.19346000       0.76227000
    33  H          0.63420000       0.75940000       0.27170000
    34  H          0.36580000       0.24060000       0.72830000
    35  C          0.47354000       0.48514000       0.36403000
    36  C          0.52646000       0.51486000       0.63597000
    37  C          0.38634000       0.63604000       0.45893000
    38  C          0.61366000       0.36396000       0.54107000
    39  H          0.32560000       0.65880000       0.43340000
    40  H          0.67440000       0.34120000       0.56660000
    41  H          0.35480000       0.59160000       0.50990000
    42  H          0.64520000       0.40840000       0.49010000
    43  C          0.59215000       0.34514000       0.26124000
    44  C          0.40785000       0.65486000       0.73876000
    45  C          0.54325000       0.33725000       0.19714000
    46  C          0.45675000       0.66275000       0.80286000
    47  C          0.41876000       0.72826000       0.48496000
    48  C          0.58124000       0.27174000       0.51504000
    49  H          0.45590000       0.70440000       0.52810000
    50  H          0.54410000       0.29560000       0.47190000
    51  H          0.34760000       0.77400000       0.51350000
    52  H          0.65240000       0.22600000       0.48650000
    53  C          0.56676000       0.24226000       0.15374000
    54  C          0.43324000       0.75774000       0.84626000
    55  C          0.66586000       0.26405000       0.27854000
    56  C          0.33414000       0.73595000       0.72146000
    57  H          0.70200000       0.27230000       0.31840000
    58  H          0.29800000       0.72770000       0.68160000
    59  C          0.68979000       0.16737000       0.23796000
    60  C          0.31021000       0.83263000       0.76204000
    61  H          0.73760000       0.11100000       0.25350000
    62  H          0.26240000       0.88900000       0.74650000
    63  C          0.64279000       0.15556000       0.17556000
    64  C          0.35721000       0.84444000       0.82444000
    65  H          0.65980000       0.09180000       0.14740000
    66  H          0.34020000       0.90820000       0.85260000
    67  C          0.47356000       0.42606000       0.16964000
    68  C          0.52644000       0.57394000       0.83036000
    69  H          0.45850000       0.49140000       0.19480000
    70  H          0.54150000       0.50860000       0.80520000
    71  C          0.62425000       0.83735000       0.49764000
    72  C          0.37575000       0.16265000       0.50236000
    73  H          0.63830000       0.89940000       0.52040000
    74  H          0.36170000       0.10060000       0.47960000
    75  H          0.60470000       0.78460000       0.54450000
    76  H          0.39530000       0.21540000       0.45550000
    77  C          0.80644000       0.85364000       0.37974000
    78  C          0.19356000       0.14636000       0.62026000
    79  C          0.09105000       0.80854000       0.22634000
    80  C          0.90895000       0.19146000       0.77366000
    81  C          0.97135000       0.84835000       0.24124000
    82  C          0.02865000       0.15165000       0.75876000
    83  C          0.24587000       0.69137000       0.25936000
    84  C          0.75413000       0.30863000       0.74064000
    85  H          0.27020000       0.63660000       0.29320000
    86  H          0.72980000       0.36340000       0.70680000
    87  C          0.13005000       0.72555000       0.27744000
    88  C          0.86995000       0.27445000       0.72256000
    89  H          0.07650000       0.69430000       0.32360000
    90  H          0.92350000       0.30570000       0.67640000
    91  C          0.17416000       0.85446000       0.15624000
    92  C          0.82584000       0.14554000       0.84376000
    93  C          0.93897000       0.92366000       0.18855000
    94  C          0.06103000       0.07634000       0.81145000
    95  H          0.86030000       0.94640000       0.19840000
    96  H          0.13970000       0.05360000       0.80160000
    97  C          0.29558000       0.81538000       0.14306000
    98  C          0.70442000       0.18462000       0.85694000
    99  H          0.35260000       0.84620000       0.09950000
   100  H          0.64740000       0.15380000       0.90050000
   101  C          0.42997000       0.41151000       0.10546000
   102  C          0.57003000       0.58849000       0.89454000
   103  H          0.38220000       0.46720000       0.08880000
   104  H          0.61780000       0.53280000       0.91120000
   105  C          0.52686000       0.86637000       0.46485000
   106  C          0.47314000       0.13363000       0.53515000
   107  H          0.45900000       0.88850000       0.51390000
   108  H          0.54100000       0.11150000       0.48610000
   109  H          0.54260000       0.92840000       0.42670000
   110  H          0.45740000       0.07160000       0.57330000
   111  C          0.32628000       0.73551000       0.19268000
   112  C          0.67372000       0.26449000       0.80732000
   113  H          0.40440000       0.70950000       0.18120000
   114  H          0.59560000       0.29050000       0.81880000
   115  C          0.83775000       0.60154000       0.01223000
   116  C          0.16225000       0.39846000       0.98777000
   117  C          0.67115000       0.80124000       0.15203000
   118  C          0.32885000       0.19876000       0.84797000
   119  C          0.84135000       0.69645000       0.04863000
   120  C          0.15865000       0.30355000       0.95137000
   121  C          0.92785000       0.57105000       0.93227000
   122  C          0.07215000       0.42895000       0.06773000
   123  C          0.92686000       0.47475000       0.89596000
   124  C          0.07314000       0.52525000       0.10404000
   125  H          0.98350000       0.45470000       0.84400000
   126  H          0.01650000       0.54530000       0.15600000
   127  C          0.75405000       0.53145000       0.05034000
   128  C          0.24595000       0.46855000       0.94966000
   129  H          0.69600000       0.54810000       0.10250000
   130  H          0.30400000       0.45190000       0.89750000
   131  C          0.01275000       0.63726000       0.89366000
   132  C          0.98725000       0.36274000       0.10634000
   133  H          0.07070000       0.61820000       0.84200000
   134  H          0.92930000       0.38180000       0.15800000
   135  C          0.51395000       0.88594000       0.27634000
   136  C          0.48605000       0.11406000       0.72366000
   137  H          0.46930000       0.90510000       0.23720000
   138  H          0.53070000       0.09490000       0.76280000
   139  H          0.54160000       0.94910000       0.28570000
   140  H          0.45840000       0.05090000       0.71430000
   141  C          0.43697000       0.84388000       0.36175000
   142  C          0.56303000       0.15612000       0.63825000
   143  H          0.38080000       0.90240000       0.39060000
   144  H          0.61920000       0.09760000       0.60940000
   145  H          0.39400000       0.79330000       0.34950000
   146  H          0.60600000       0.20670000       0.65050000
   147  C          0.92396000       0.75835000       0.00944000
   148  C          0.07604000       0.24165000       0.99056000
   149  H          0.92370000       0.82100000       0.03430000
   150  H          0.07630000       0.17900000       0.96570000
   151  C          0.84517000       0.41186000       0.93545000
   152  C          0.15483000       0.58814000       0.06455000
   153  H          0.84720000       0.34800000       0.91140000
   154  H          0.15280000       0.65200000       0.08860000
   155  C          0.75726000       0.44176000       0.01234000
   156  C          0.24274000       0.55824000       0.98766000
   157  H          0.69970000       0.39870000       0.03750000
   158  H          0.30030000       0.60130000       0.96250000
   159  C          0.01196000       0.72816000       0.93006000
   160  C          0.98804000       0.27184000       0.06994000
   161  H          0.06890000       0.77110000       0.90330000
   162  H          0.93110000       0.22890000       0.09670000
   163  C          0.45551100       0.31521300       0.06437000
   164  C          0.54448900       0.68478700       0.93563000
   165  H          0.42800000       0.30830000       0.01900000
   166  H          0.57200000       0.69170000       0.98100000
   167  C          0.51691000       0.23621100       0.08877000
   168  C          0.48309000       0.76378900       0.91123000
   169  H          0.52920000       0.17180000       0.06250000
   170  H          0.47080000       0.82820000       0.93750000
   171  C          0.13651000       0.93557000       0.10405000
   172  C          0.86349000       0.06443000       0.89595000
   173  H          0.19070000       0.96720000       0.05870000
   174  H          0.80930000       0.03280000       0.94130000
   175  C          0.01961000       0.96826000       0.11996000
   176  C          0.98039000       0.03174000       0.88004000
   177  H         -0.00490000       0.02040000       0.08420000
   178  H          0.00490000       0.97960000       0.91580000
   179  N          0.11894000       0.19475000       0.32933000
   180  N          0.88106000       0.80525000       0.67067000
   181  C          0.17317000       0.10497000       0.37026000
   182  C          0.82683000       0.89503000       0.62974000
   183  H          0.16130000       0.12270000       0.42900000
   184  H          0.83870000       0.87730000       0.57100000
   185  H          0.25600000       0.09610000       0.33970000
   186  H          0.74400000       0.90390000       0.66030000
   187  C          0.12997000      -0.00316000       0.37336000
   188  C          0.87003000       0.00316000       0.62664000
   189  H          0.04770000       0.00400000       0.40300000
   190  H          0.95230000      -0.00400000       0.59700000
   191  H          0.16890000       0.94470000       0.40350000
   192  H          0.83110000       0.05530000       0.59650000
   193  H          0.14620000       0.97520000       0.31540000
   194  H          0.85380000       0.02480000       0.68460000
   195  C          0.13078000       0.39166000       0.28796000
   196  C          0.86922000       0.60834000       0.71204000
   197  H          0.17290000       0.39290000       0.22700000
   198  H          0.82710000       0.60710000       0.77300000
   199  H          0.14250000       0.45190000       0.31330000
   200  H          0.85750000       0.54810000       0.68670000
   201  H          0.04940000       0.39410000       0.29670000
   202  H          0.95060000       0.60590000       0.70330000
   203  C          0.17458000       0.28887000       0.33086000
   204  C          0.82542000       0.71113000       0.66914000
   205  H          0.25750000       0.27180000       0.30220000
   206  H          0.74250000       0.72820000       0.69780000
   207  H          0.16260000       0.30240000       0.39060000
   208  H          0.83740000       0.69760000       0.60940000
   209  C          0.98561000       0.21469000       0.38291000
   210  C          0.01439000       0.78531000       0.61709000
   211  H          0.95000000       0.15210000       0.38330000
   212  H          0.05000000       0.84790000       0.61670000
   213  H          0.94720000       0.27370000       0.35700000
   214  H          0.05280000       0.72630000       0.64300000
   215  C          0.97318600       0.24001200       0.47869000
   216  C          0.02681400       0.75998800       0.52131000
   217  H          0.01990000       0.18540000       0.50100000
   218  H          0.98010000       0.81460000       0.49900000
   219  H          0.89340000       0.24300000       0.51440000
   220  H          0.10660000       0.75700000       0.48560000
   221  H         -0.00110000       0.30710000       0.47840000
   222  H          0.00110000       0.69290000       0.52160000
   223  C          0.12311500       0.17021200       0.23879000
   224  C          0.87688500       0.82978800       0.76121000
   225  H          0.08160000       0.11060000       0.24290000
   226  H          0.91840000       0.88940000       0.75710000
   227  H          0.08380000       0.23100000       0.21500000
   228  H          0.91620000       0.76900000       0.78500000
   229  C          0.24651500       0.14421400       0.17738000
   230  C          0.75348500       0.85578600       0.82262000
   231  H          0.27390000       0.20830000       0.14850000
   232  H          0.72610000       0.79170000       0.85150000
   233  H          0.24750000       0.09620000       0.13520000
   234  H          0.75250000       0.90380000       0.86480000
   235  H          0.29600000       0.11170000       0.20960000
   236  H          0.70400000       0.88830000       0.79040000
   237  O          0.08761200       0.45520000       0.52899000
   238  O          0.91238800       0.54480000       0.47101000
