data_XIDJAY
_symmetry_space_group_name_H-M    'P1'
_symmetry_Int_Tables_number       1
loop_
_symmetry_equiv_pos_site_id
_symmetry_equiv_pos_as_xyz
1 x,y,z
_cell_length_a                   12.18627
_cell_length_b                   12.92627
_cell_length_c                   16.40359
_cell_angle_alpha                85.6603
_cell_angle_beta                 70.0573
_cell_angle_gamma                81.2053
loop_
_atom_site_label
_atom_site_type_symbol
_atom_site_fract_x
_atom_site_fract_y
_atom_site_fract_z
     1  Cl         0.22465120       0.41272100       0.19588900
     2  Cl         0.77534880       0.58727900       0.80411100
     3  S          0.64388130       0.57293110       0.10343100
     4  S          0.35611870       0.42706890       0.89656900
     5  S          0.18839130       0.02323110       0.09977100
     6  S          0.81160870       0.97676890       0.90022900
     7  S          0.36370140       0.11126120       0.42361900
     8  S          0.63629860       0.88873880       0.57638100
     9  N          0.51083000       0.20433000       0.08133000
    10  N          0.48917000       0.79567000       0.91867000
    11  C          0.19405000       0.14774000       0.12113000
    12  C          0.80595000       0.85226000       0.87887000
    13  C          0.90625000       0.19744000       0.27283000
    14  C          0.09375000       0.80256000       0.72717000
    15  C          0.38025000       0.16035000       0.00394000
    16  C          0.61975000       0.83965000      -0.00394000
    17  H          0.36810000       0.09260000       0.98920000
    18  H          0.63190000       0.90740000       0.01080000
    19  H          0.39160000       0.20550000       0.95260000
    20  H          0.60840000       0.79450000       0.04740000
    21  C          0.81634000       0.15466000       0.34234000
    22  C          0.18366000       0.84534000       0.65766000
    23  C          0.02625000       0.15464000       0.26144000
    24  C          0.97375000       0.84536000       0.73856000
    25  C          0.87325000       0.28125000       0.22244000
    26  C          0.12675000       0.71875000       0.77756000
    27  H          0.93050000       0.31140000       0.17780000
    28  H          0.06950000       0.68860000       0.82220000
    29  C          0.84989000       0.07337000       0.39425000
    30  C          0.15011000       0.92663000       0.60575000
    31  H          0.79240000       0.04460000       0.43950000
    32  H          0.20760000       0.95540000       0.56050000
    33  C          0.96648900       0.03586000       0.37905000
    34  C          0.03351100       0.96414000       0.62095000
    35  H          0.98640000       0.98110000       0.41380000
    36  H          0.01360000       0.01890000       0.58620000
    37  C          0.69573000       0.19948000       0.35436000
    38  C          0.30427000       0.80052000       0.64564000
    39  H          0.63470000       0.17370000       0.39880000
    40  H          0.36530000       0.82630000       0.60120000
    41  C          0.75453000       0.31856000       0.23985000
    42  C          0.24547000       0.68144000       0.76015000
    43  H          0.73290000       0.37440000       0.20680000
    44  H          0.26710000       0.62560000       0.79320000
    45  C          0.05607000       0.07755000       0.31265000
    46  C          0.94393000       0.92245000       0.68735000
    47  H          0.13470000       0.05240000       0.30410000
    48  H          0.86530000       0.94760000       0.69590000
    49  N          0.27554000       0.20393000       0.07123000
    50  N          0.72446000       0.79607000       0.92877000
    51  H          0.26520000       0.27010000       0.07940000
    52  H          0.73480000       0.72990000       0.92060000
    53  N          0.11544000       0.19853000       0.19083000
    54  N          0.88456000       0.80147000       0.80917000
    55  H          0.11910000       0.26410000       0.19330000
    56  H          0.88090000       0.73590000       0.80670000
    57  C          0.33005000       0.19444000       0.34993000
    58  C          0.66995000       0.80556000       0.65007000
    59  C          0.06365000       0.42265000       0.57163000
    60  C          0.93635000       0.57735000       0.42837000
    61  C          0.15654000       0.39304000       0.49253000
    62  C          0.84346000       0.60696000       0.50747000
    63  C          0.15685000       0.29794000       0.45503000
    64  C          0.84315000       0.70206000       0.54497000
    65  C          0.24185000       0.46025000       0.45614000
    66  C          0.75815000       0.53975000       0.54386000
    67  H          0.30340000       0.44200000       0.40520000
    68  H          0.69660000       0.55800000       0.59480000
    69  C          0.07286000       0.23515000       0.49264000
    70  C          0.92714000       0.76485000       0.50736000
    71  H          0.07510000       0.17250000       0.46720000
    72  H          0.92490000       0.82750000       0.53280000
    73  C          0.49035000       0.11304000       0.22423000
    74  C          0.50965000       0.88696000       0.77577000
    75  H          0.54470000       0.10760000       0.25640000
    76  H          0.45530000       0.89240000       0.74360000
    77  H          0.46380000       0.04520000       0.22800000
    78  H          0.53620000       0.95480000       0.77200000
    79  C          0.23586000       0.55095000       0.49404000
    80  C          0.76414000       0.44905000       0.50596000
    81  H          0.29290000       0.59470000       0.46880000
    82  H          0.70710000       0.40530000       0.53120000
    83  C          0.97835000       0.35596000       0.60834000
    84  C          0.02165000       0.64404000       0.39166000
    85  H          0.91780000       0.37420000       0.65980000
    86  H          0.08220000       0.62580000       0.34020000
    87  C          0.98194000       0.26496000       0.57054000
    88  C          0.01806000       0.73504000       0.42946000
    89  H          0.92410000       0.22200000       0.59630000
    90  H          0.07590000       0.77800000       0.40370000
    91  C          0.14267000       0.58036000       0.57245000
    92  C          0.85733000       0.41964000       0.42755000
    93  H          0.13900000       0.64350000       0.59730000
    94  H          0.86100000       0.35650000       0.40270000
    95  C          0.55011000       0.13721100       0.13715000
    96  C          0.44989000       0.86278900       0.86285000
    97  H          0.62190000       0.16110000       0.13680000
    98  H          0.37810000       0.83890000       0.86320000
    99  H          0.57450000       0.07040000       0.10850000
   100  H          0.42550000       0.92960000       0.89150000
   101  C          0.06236000       0.51965000       0.60954000
   102  C          0.93764000       0.48035000       0.39046000
   103  H          0.00340000       0.53940000       0.66130000
   104  H         -0.00340000       0.46060000       0.33870000
   105  C          0.52324000       0.51354000       0.13613000
   106  C          0.47676000       0.48646000       0.86387000
   107  C          0.40095000       0.65254000       0.23724000
   108  C          0.59905000       0.34746000       0.76276000
   109  C          0.61665000       0.36254000       0.04243000
   110  C          0.38335000       0.63746000       0.95757000
   111  H          0.63670000       0.40080000       0.98730000
   112  H          0.36330000       0.59920000       0.01270000
   113  H          0.68420000       0.35470000       0.06190000
   114  H          0.31580000       0.64530000       0.93810000
   115  C          0.42306000       0.75996000       0.34434000
   116  C          0.57694000       0.24004000       0.65566000
   117  C          0.44875000       0.66274000       0.30154000
   118  C          0.55125000       0.33726000       0.69846000
   119  C          0.32645000       0.73415000       0.21774000
   120  C          0.67355000       0.26585000       0.78226000
   121  H          0.29170000       0.72470000       0.17690000
   122  H          0.70830000       0.27530000       0.82310000
   123  C          0.30177000       0.82966000       0.25725000
   124  C          0.69823000       0.17034000       0.74275000
   125  H          0.25250000       0.88400000       0.24180000
   126  H          0.74750000       0.11600000       0.75820000
   127  C          0.51916000       0.57576000       0.32834000
   128  C          0.48084000       0.42424000       0.67166000
   129  H          0.53520000       0.51120000       0.30210000
   130  H          0.46480000       0.48880000       0.69790000
   131  C          0.35037000       0.84415000       0.31936000
   132  C          0.64963000       0.15585000       0.68064000
   133  H          0.33550000       0.90880000       0.34490000
   134  H          0.66450000       0.09120000       0.65510000
   135  C          0.56167000       0.59039000       0.39326000
   136  C          0.43833000       0.40961000       0.60674000
   137  H          0.60670000       0.53470000       0.41130000
   138  H          0.39330000       0.46530000       0.58870000
   139  C          0.47089000       0.76839000       0.40976000
   140  C          0.52911000       0.23161000       0.59024000
   141  H          0.45500000       0.83160000       0.43770000
   142  H          0.54500000       0.16840000       0.56230000
   143  C          0.53859000       0.68801100       0.43336000
   144  C          0.46141000       0.31198900       0.56664000
   145  H          0.57030000       0.69670000       0.47610000
   146  H          0.42970000       0.30330000       0.52390000
   147  C          0.59368000       0.26337000       0.03018000
   148  C          0.40632000       0.73663000       0.96982000
   149  H          0.58100000       0.26920000       0.97450000
   150  H          0.41900000       0.73080000       0.02550000
   151  H          0.66810000       0.21850000       0.02070000
   152  H          0.33190000       0.78150000       0.97930000
   153  N          0.51893000       0.42243000       0.10443000
   154  N          0.48107000       0.57757000       0.89557000
   155  H          0.45260000       0.39800000       0.12240000
   156  H          0.54740000       0.60200000       0.87760000
   157  N          0.42024000       0.55413000       0.19513000
   158  N          0.57976000       0.44587000       0.80487000
   159  H          0.36200000       0.51870000       0.20840000
   160  H          0.63800000       0.48130000       0.79160000
   161  N          0.24194000       0.27493000       0.37073000
   162  N          0.75806000       0.72507000       0.62927000
   163  H          0.23580000       0.31720000       0.32890000
   164  H          0.76420000       0.68280000       0.67110000
   165  N          0.39044000       0.18943000       0.26403000
   166  N          0.60956000       0.81057000       0.73597000
   167  H          0.36750000       0.23550000       0.23050000
   168  H          0.63250000       0.76450000       0.76950000
   169  C          0.67122000       0.27598000       0.30297000
   170  C          0.32878000       0.72402000       0.69703000
   171  H          0.59280000       0.30120000       0.31110000
   172  H          0.40720000       0.69880000       0.68890000
   173  C          0.48236000       0.14769000       0.02567000
   174  C          0.51764000       0.85231000       0.97433000
   175  H          0.49060000       0.07560000       0.04650000
   176  H          0.50940000       0.92440000       0.95350000
   177  H          0.54580000       0.15100000       0.97070000
   178  H          0.45420000       0.84900000       0.02930000
   179  N          0.87835000       0.80574000       0.17193000
   180  N          0.12165000       0.19426000       0.82807000
   181  C          0.00245000       0.78858000       0.10995000
   182  C         -0.00245000       0.21142000       0.89005000
   183  H          0.04610000       0.73040000       0.13160000
   184  H          0.95390000       0.26960000       0.86840000
   185  H          0.03930000       0.85040000       0.10810000
   186  H          0.96070000       0.14960000       0.89190000
   187  C          0.01081100       0.76599000       0.01946000
   188  C          0.98918900       0.23401000       0.98054000
   189  H          0.93750000       0.74640000       0.02020000
   190  H          0.06250000       0.25360000       0.97980000
   191  H          0.07300000       0.70950000      -0.00280000
   192  H          0.92700000       0.29050000       0.00280000
   193  H          0.02720000       0.82730000       0.98300000
   194  H          0.97280000       0.17270000       0.01700000
   195  C          0.86309000       0.61636000       0.21316000
   196  C          0.13691000       0.38364000       0.78684000
   197  H          0.94630000       0.61450000       0.19950000
   198  H          0.05370000       0.38550000       0.80050000
   199  H          0.84810000       0.55630000       0.18950000
   200  H          0.15190000       0.44370000       0.81050000
   201  H          0.82530000       0.61540000       0.27490000
   202  H          0.17470000       0.38460000       0.72510000
   203  C          0.81488000       0.71435000       0.17466000
   204  C          0.18512000       0.28565000       0.82534000
   205  H          0.81970000       0.70060000       0.11600000
   206  H          0.18030000       0.29940000       0.88400000
   207  H          0.73220000       0.73240000       0.20820000
   208  H          0.26780000       0.26760000       0.79180000
   209  C          0.76191200       0.85311000       0.32877000
   210  C          0.23808800       0.14689000       0.67123000
   211  H          0.70260000       0.86290000       0.30150000
   212  H          0.29740000       0.13710000       0.69850000
   213  H          0.75770000       0.91530000       0.35870000
   214  H          0.24230000       0.08470000       0.64130000
   215  H          0.74900000       0.79500000       0.36930000
   216  H          0.25100000       0.20500000       0.63070000
   217  C          0.88139000       0.83151000       0.26097000
   218  C          0.11861000       0.16849000       0.73903000
   219  H          0.92660000       0.77310000       0.28100000
   220  H          0.07340000       0.22690000       0.71900000
   221  H          0.92180000       0.89220000       0.25430000
   222  H          0.07820000       0.10780000       0.74570000
   223  C          0.81698000       0.90256000       0.13706000
   224  C          0.18302000       0.09744000       0.86294000
   225  H          0.82020000       0.88780000       0.07900000
   226  H          0.17980000       0.11220000       0.92100000
   227  H          0.73450000       0.91210000       0.17300000
   228  H          0.26550000       0.08790000       0.82700000
   229  C          0.86447000       0.00395000       0.13285000
   230  C          0.13553000      -0.00395000       0.86715000
   231  H          0.88520000       0.00930000       0.18360000
   232  H          0.11480000      -0.00930000       0.81640000
   233  H          0.80550000       0.06120000       0.13010000
   234  H          0.19450000       0.93880000       0.86990000
   235  H          0.93300000       0.00600000       0.08210000
   236  H          0.06700000      -0.00600000       0.91790000
   237  O          0.09719000       0.48821000       0.04897000
   238  O          0.90281000       0.51179000       0.95103000
