data_XIDVUF
_symmetry_space_group_name_H-M    'P1'
_symmetry_Int_Tables_number       1
loop_
_symmetry_equiv_pos_site_id
_symmetry_equiv_pos_as_xyz
1 x,y,z
_cell_length_a                   31.22561
_cell_length_b                   9.20103
_cell_length_c                   7.40402
_cell_angle_alpha                90.0
_cell_angle_beta                 100.746712
_cell_angle_gamma                90.0
loop_
_atom_site_label
_atom_site_type_symbol
_atom_site_fract_x
_atom_site_fract_y
_atom_site_fract_z
     1  C          0.80305110       0.98056000       0.55674000
     2  C          0.19694890       0.98056000       0.94326000
     3  C          0.30305110       0.48056000       0.55674000
     4  C          0.69694890       0.48056000       0.94326000
     5  C          0.19694890       0.01944000       0.44326000
     6  C          0.80305110       0.01944000       0.05674000
     7  C          0.69694890       0.51944000       0.44326000
     8  C          0.30305110       0.51944000       0.05674000
     9  H          0.83193300       0.97097900       0.53470200
    10  H          0.16806700       0.97097900       0.96529800
    11  H          0.33193300       0.47097900       0.53470200
    12  H          0.66806700       0.47097900       0.96529800
    13  H          0.16806700       0.02902100       0.46529800
    14  H          0.83193300       0.02902100       0.03470200
    15  H          0.66806700       0.52902100       0.46529800
    16  H          0.33193300       0.52902100       0.03470200
    17  C          0.76680110      -0.00733000       0.58424000
    18  C          0.23319890      -0.00733000       0.91576000
    19  C          0.26680110       0.49267000       0.58424000
    20  C          0.73319890       0.49267000       0.91576000
    21  C          0.23319890       0.00733000       0.41576000
    22  C          0.76680110       0.00733000       0.08424000
    23  C          0.73319890       0.50733000       0.41576000
    24  C          0.26680110       0.50733000       0.08424000
    25  C          0.72304100       0.00833000       0.61484000
    26  C          0.27695900       0.00833000       0.88516000
    27  C          0.22304100       0.50833000       0.61484000
    28  C          0.77695900       0.50833000       0.88516000
    29  C          0.27695900      -0.00833000       0.38516000
    30  C          0.72304100      -0.00833000       0.11484000
    31  C          0.77695900       0.49167000       0.38516000
    32  C          0.22304100       0.49167000       0.11484000
    33  C          0.70451100       0.14524000       0.62904000
    34  C          0.29548900       0.14524000       0.87096000
    35  C          0.20451100       0.64524000       0.62904000
    36  C          0.79548900       0.64524000       0.87096000
    37  C          0.29548900       0.85476000       0.37096000
    38  C          0.70451100       0.85476000       0.12904000
    39  C          0.79548900       0.35476000       0.37096000
    40  C          0.20451100       0.35476000       0.12904000
    41  H          0.72064200       0.23130200       0.61848200
    42  H          0.27935800       0.23130200       0.88151800
    43  H          0.22064200       0.73130200       0.61848200
    44  H          0.77935800       0.73130200       0.88151800
    45  H          0.27935800       0.76869800       0.38151800
    46  H          0.72064200       0.76869800       0.11848200
    47  H          0.77935800       0.26869800       0.38151800
    48  H          0.22064200       0.26869800       0.11848200
    49  C          0.66211110       0.15224000       0.65884000
    50  C          0.33788890       0.15224000       0.84116000
    51  C          0.16211110       0.65224000       0.65884000
    52  C          0.83788890       0.65224000       0.84116000
    53  C          0.33788890       0.84776000       0.34116000
    54  C          0.66211110       0.84776000       0.15884000
    55  C          0.83788890       0.34776000       0.34116000
    56  C          0.16211110       0.34776000       0.15884000
    57  H          0.64865200       0.24341400       0.67048000
    58  H          0.35134800       0.24341400       0.82952000
    59  H          0.14865200       0.74341400       0.67048000
    60  H          0.85134800       0.74341400       0.82952000
    61  H          0.35134800       0.75658600       0.32952000
    62  H          0.64865200       0.75658600       0.17048000
    63  H          0.85134800       0.25658600       0.32952000
    64  H          0.14865200       0.25658600       0.17048000
    65  C          0.63962110       0.02394000       0.67144000
    66  C          0.36037890       0.02394000       0.82856000
    67  C          0.13962110       0.52394000       0.67144000
    68  C          0.86037890       0.52394000       0.82856000
    69  C          0.36037890       0.97606000       0.32856000
    70  C          0.63962110       0.97606000       0.17144000
    71  C          0.86037890       0.47606000       0.32856000
    72  C          0.13962110       0.47606000       0.17144000
    73  H          0.61044600       0.02972800       0.69083100
    74  H          0.38955400       0.02972800       0.80916900
    75  H          0.11044600       0.52972800       0.69083100
    76  H          0.88955400       0.52972800       0.80916900
    77  H          0.38955400       0.97027200       0.30916900
    78  H          0.61044600       0.97027200       0.19083100
    79  H          0.88955400       0.47027200       0.30916900
    80  H          0.11044600       0.47027200       0.19083100
    81  C          0.69774100       0.88596000       0.63014000
    82  C          0.30225900       0.88596000       0.86986000
    83  C          0.19774100       0.38596000       0.63014000
    84  C          0.80225900       0.38596000       0.86986000
    85  C          0.30225900       0.11404000       0.36986000
    86  C          0.69774100       0.11404000       0.13014000
    87  C          0.80225900       0.61404000       0.36986000
    88  C          0.19774100       0.61404000       0.13014000
    89  H          0.71030500       0.79294600       0.62030000
    90  H          0.28969500       0.79294600       0.87970000
    91  H          0.21030500       0.29294600       0.62030000
    92  H          0.78969500       0.29294600       0.87970000
    93  H          0.28969500       0.20705400       0.37970000
    94  H          0.71030500       0.20705400       0.12030000
    95  H          0.78969500       0.70705400       0.37970000
    96  H          0.21030500       0.70705400       0.12030000
    97  N          0.65689900       0.89247000       0.65774000
    98  N          0.34310100       0.89247000       0.84226000
    99  N          0.15689900       0.39247000       0.65774000
   100  N          0.84310100       0.39247000       0.84226000
   101  N          0.34310100       0.10753000       0.34226000
   102  N          0.65689900       0.10753000       0.15774000
   103  N          0.84310100       0.60753000       0.34226000
   104  N          0.15689900       0.60753000       0.15774000
   105  C          0.50000000       0.33115000       0.75000000
   106  C          0.00000000       0.83115000       0.75000000
   107  C          0.50000000       0.66885000       0.25000000
   108  C         -0.00000000       0.16885000       0.25000000
   109  C          0.53586100       0.40843000       0.72104000
   110  C          0.46413900       0.40843000       0.77896000
   111  C          0.03586100       0.90843000       0.72104000
   112  C          0.96413900       0.90843000       0.77896000
   113  C          0.46413900       0.59157000       0.27896000
   114  C          0.53586100       0.59157000       0.22104000
   115  C          0.96413900       0.09157000       0.27896000
   116  C          0.03586100       0.09157000       0.22104000
   117  C          0.53756100       0.55813000       0.72404000
   118  C          0.46243900       0.55813000       0.77596000
   119  C          0.03756100       0.05813000       0.72404000
   120  C          0.96243900       0.05813000       0.77596000
   121  C          0.46243900       0.44187000       0.27596000
   122  C          0.53756100       0.44187000       0.22404000
   123  C          0.96243900       0.94187000       0.27596000
   124  C          0.03756100       0.94187000       0.22404000
   125  C          0.50000000       0.62874000       0.75000000
   126  C          0.00000000       0.12874000       0.75000000
   127  C          0.50000000       0.37126000       0.25000000
   128  C         -0.00000000       0.87126000       0.25000000
   129  F          0.57125600       0.33457190       0.69022000
   130  F          0.42874400       0.33457190       0.80978000
   131  F          0.07125600       0.83457190       0.69022000
   132  F          0.92874400       0.83457190       0.80978000
   133  F          0.42874400       0.66542810       0.30978000
   134  F          0.57125600       0.66542810       0.19022000
   135  F          0.92874400       0.16542810       0.30978000
   136  F          0.07125600       0.16542810       0.19022000
   137  F          0.50000000       0.77533000       0.75000000
   138  F          0.00000000       0.27533000       0.75000000
   139  F          0.50000000       0.22467000       0.25000000
   140  F         -0.00000000       0.72467000       0.25000000
   141  I          0.50000000       0.10425300       0.75000000
   142  I          0.00000000       0.60425300       0.75000000
   143  I          0.50000000       0.89574700       0.25000000
   144  I         -0.00000000       0.39574700       0.25000000
   145  I          0.59255200       0.67933200       0.69257300
   146  I          0.40744800       0.67933200       0.80742700
   147  I          0.09255200       0.17933200       0.69257300
   148  I          0.90744800       0.17933200       0.80742700
   149  I          0.40744800       0.32066800       0.30742700
   150  I          0.59255200       0.32066800       0.19257300
   151  I          0.90744800       0.82066800       0.30742700
   152  I          0.09255200       0.82066800       0.19257300
