data_XIDVAL
_symmetry_space_group_name_H-M    'P1'
_symmetry_Int_Tables_number       1
loop_
_symmetry_equiv_pos_site_id
_symmetry_equiv_pos_as_xyz
1 x,y,z
_cell_length_a                   4.349413
_cell_length_b                   8.6933
_cell_length_c                   13.8484
_cell_angle_alpha                90.1589
_cell_angle_beta                 96.9048
_cell_angle_gamma                104.0729
loop_
_atom_site_label
_atom_site_type_symbol
_atom_site_fract_x
_atom_site_fract_y
_atom_site_fract_z
     1  I          0.50105100       0.32443500       0.15313300
     2  I          0.49894900       0.67556500       0.84686700
     3  F          0.81649000       0.02695000       0.18303000
     4  F          0.18351000       0.97305000       0.81697000
     5  F          0.18509000       0.21905000       0.93117000
     6  F          0.81491000       0.78095000       0.06883000
     7  C          0.65901400       0.01589000       0.09155000
     8  C          0.34098600      -0.01589000       0.90845000
     9  C          0.34651500       0.11308000       0.96675000
    10  C          0.65348500       0.88692000       0.03325000
    11  C          0.50291400       0.13118000       0.06115000
    12  C          0.49708600       0.86882000       0.93885000
    13  N          0.47241300       0.57097000       0.27704000
    14  N          0.52758700       0.42903000       0.72296000
    15  C          0.62071600       0.60069000       0.36775000
    16  C          0.37928400       0.39931000       0.63225000
    17  H          0.73216600       0.52671000       0.39545800
    18  H          0.26783400       0.47329000       0.60454200
    19  C          0.62101600       0.73339000       0.42385000
    20  C          0.37898400       0.26661000       0.57615000
    21  C          0.29911600       0.80879000       0.28905000
    22  C          0.70088400       0.19121000       0.71095000
    23  H          0.18541200       0.88036700       0.25943400
    24  H          0.81458800       0.11963300       0.74056600
    25  C          0.31021700       0.67379000       0.23865000
    26  C          0.68978300       0.32621000       0.76135000
    27  H          0.19940700       0.65269400       0.17473000
    28  H          0.80059300       0.34730600       0.82527000
    29  C          0.45441600       0.83959000       0.38295000
    30  C          0.54558400       0.16041000       0.61705000
    31  H          0.44704100       0.93168700       0.41869600
    32  H          0.55295900       0.06831300       0.58130400
    33  C          0.79221700       0.76029000       0.52145000
    34  C          0.20778300       0.23971000       0.47855000
    35  C          0.93120000       0.77891000       0.60086000
    36  C          0.06880000       0.22109000       0.39914000
    37  H          0.04217400       0.79399800       0.66476000
    38  H         -0.04217400       0.20600200       0.33524000
